**$ENCRYPTED_LIB
**$INTERFACE
* 
*****************************************************************************
* (C) Copyright 2010 Texas Instruments Incorporated. All rights reserved.
*****************************************************************************
*  This model is designed as an aid for customers of Texas Instruments.
*  TI and its licensors and suppliers make no warrenties, either expressed
*  or implied, with respect to this model, including the warranties of 
*  merchantability or fitness for a particular purpose.  The model is
*  provided solely on an "as is" basis.  The entire risk as to its quality
*  and performance is with the customer
*****************************************************************************
*
*  Released by: Analog eLab Design Center, Texas Instruments Inc.
*  Part:        TPA3106D1
*  Description: 40-W MONO CLASS-D AUDIO POWER AMPLIFIER
*  Date:        11/09/2010 13:24:58
*  Model Type:  PSPICE
*  Simulator:   PSPICE 
*  Version      16.2.0.p001
*  Datasheet:   SLOS516BOCTOBER 2007REVISED MARCH 2007
*
*  Model Version: Final 1.00
*
*****************************************************************************
*  Basic functionaly and efficiency are represented in the macromodel
*****************************************************************************
*
*$
.subckt TPA3106D1 INP INN MSTR_SLVB GAIN0 GAIN1 SYNC VREF AVCC PVCC AGND PGND OUTN OUTP SDB
$CDNENCSTART
eee8c5c7a2bc4b01f045f303678664e7916da0bae22e8cb0bba041dd67c69ce448ea70148a9ac1670c8926c1ac5057c8ccfcd77bf87ca9dc76057e5b11a55be4
2942b6f365fbd688b01050fe6a09aaeb0cd6d1f438909f515c75312f54497ac7ab4fd3c1113271df44c926e83b8a8e55a6b60347a304b9274b30dd9cc082fd53
e94321c69e42b2afb01050fe6a09aaeb0cd6d1f438909f515c75312f54497ac7ab4fd3c1113271df44c926e83b8a8e55a6b60347a304b9274b30dd9cc082fd53
aa34762272d05d2abcc83a515956233bc52bb302d3bf66c121381a55155a873e49b6b42bfb688de72932b2ad14ff615cd8da728ac5538a90df9fcfa116bd424f
32305f2c8a728325cbeb9d78685868916ec519197eddb05d0a382546daff40ac36dc2a0c8a20048fc78493a06513424bf79fc3d59c3e896648b6cc610b5f9bae
f234151a7e7220782f1041d26757cdd5b11a7f30aa0dd0c598f15039647943591f56e05c1a1cccd58fd65c27fd8d270d5f6c149ad793b2077d58ff1dd0431205
bf9087348bb28cd35e9d58910e01329ae3128aed6a1cd2435d1881da92ebab25989bc7ae0dce58c813765d9173e6e9a10cd6d1f438909f515709e937f2201e58
$CDNENCFINISH
.ends TPA3106D1
*$
*
.subckt HBRIDGE_TOPNMOS D G S VDD
$CDNENCSTART
eee8c5c7a2bc4b01f045f303678664e7916da0bae22e8cb0bba041dd67c69ce448ea70148a9ac1670c8926c1ac5057c8ccfcd77bf87ca9dc76057e5b11a55be4
502a1de84c72acd7fb1b8b242fc28f7d29382deeeb4db10ba9345f3f5d01bbff44d6df95d66acd3624c2ab2d5b3c2d63c1f89b7a71ac7828bd5f46036f453045
17421c333fa127cb8bc86b78de9032c00cd6d1f438909f515c75312f54497ac7ab4fd3c1113271df44c926e83b8a8e55a6b60347a304b9274b30dd9cc082fd53
728d6a184f28c2e1dfc413c469196ec0a6b5fbf4542e095acbeb9d78685868916ec519197eddb05d0a382546daff40ac36dc2a0c8a20048f6ea881ce74ff8480
fae1beb485af83dcad880986c93b547b4530b5ccf5170bd3aa909d99fc9e3516ebe78a012028715761688cbac37cfd0957e2c5aa8085137076057e5b11a55be4
8f52f5bf2851029a13935655a40d510754ec2502062f1b07a82eb632a80d4893a04dccf7ac4c32bd61688cbac37cfd0957e2c5aa8085137076057e5b11a55be4
22ce0b1a1bdf978b5140872fed3d322e57e2c5aa80851370cbeb9d78685868916ec519197eddb05d0a382546daff40ac36dc2a0c8a20048f6ea881ce74ff8480
cd393a13fd781cd9e9637f7b18a4c122eedfe74cf5798c78cbeb9d78685868916ec519197eddb05d0a382546daff40ac36dc2a0c8a20048f6ea881ce74ff8480
264fd37f04377955da743670ad4ec482d059fec2a7a00c33bfc2b6a72ee44a860f035f9bf4b1ebd089bb5dcde4d717822dd3adf139dcccb93a9faa455308b55e
e654e4394df2ef5a02fb8afdcce4e1b7fdd19479cfb6f7938530ce85166d9b067c99998061c856a07624bbc4c458c271d60e52f726a8e0a2614511a393b99f59
d7072740a938f0e7cbd9496c8d3c627f90248b1a546ac7b2b330bd2f4e6bcafaf3a1c01c223659ebd17c170861efb771da83aa5b894208e0cd8f2fdd96a559b8
$CDNENCFINISH
.ends HBRIDGE_TOPNMOS
*$
*
.subckt HBRIDGE AVDD PVDD SDB SSS VHA VHB VLA VLB VOA VOB VSS
$CDNENCSTART
eee8c5c7a2bc4b01f045f303678664e7916da0bae22e8cb0bba041dd67c69ce448ea70148a9ac1670c8926c1ac5057c8ccfcd77bf87ca9dc76057e5b11a55be4
68d1d1b37d8c661ab161518ec8f8a64c2a130768201b05fb796b3eca38a2609128f3784ac9e2dbaffe39baa36b455c61fdd19479cfb6f793f166ad3caee56be9
0c13c77b18ffd5d7469675bf838f3f152a130768201b05fb796b3eca38a260912289f6873ea29d14fe39baa36b455c61fdd19479cfb6f793f166ad3caee56be9
af9621eedc088aefd3662648790d6c02a36b7b2056518bc78291e3bf0d23748214106d8d12188118ac5239b2573ae863b4961cec4670ac8cefd4fd385e2a29b8
1feaefc04f1383bf0ea2f4f6a3e05218350250ba6123b955bfc2b6a72ee44a860f035f9bf4b1ebd089bb5dcde4d717822dd3adf139dcccb93a9faa455308b55e
7d1fdb2e9e7fe3c7873b93df96995d892a130768201b05fb46f8826287b02157cbeb9d78685868916ec519197eddb05d0a382546daff40ac3194ebcc2100439d
9bf4867c2ac3e6f29618ad809d07fdd5513114e74bcdab953312088896d8a45dfca4b3ab67fc26c7f9604123c30342133ea80fbf2f4160251aabfa10941d45cf
7662b20c599c331f873b93df96995d89d58177612136ac4bda83aa5b894208e0ad38aa184fccd6e206ac49ed440699d4c9a9a96d04c657c905258140267abbfc
4f22cebf3193244b3f6d29dff3f73869ffb3d8fabcfe41c6248e2f3ff3080f7dda83aa5b894208e0ad38aa184fccd6e206ac49ed440699d4d71a31e1169174ff
b90ad97b53d2b37ee3f4db980c0968442a130768201b05fbd639b31fae95f6c3ac814f09b2465f24685dafd073b93fc487005fadba74cbf287622fd20bf8dcc5
1918d884cf9803f32b32145d2b776514e8ac9a0ac4c76f3e0d6f107b85259231b2f13c8408af9764a33b409405a7944fc687c2e90b8d13747ba55156dc66b18d
7721b18648f2e2ece3f4db980c096844d58177612136ac4bda83aa5b894208e0ad38aa184fccd6e206ac49ed440699d4c9a9a96d04c657c905258140267abbfc
3653ad2eba2f8a310f55c0a2efdc8215ffb3d8fabcfe41c6248e2f3ff3080f7dda83aa5b894208e0ad38aa184fccd6e206ac49ed440699d4d71a31e1169174ff
a8fe0e2a89486a532df432b47e3f61432a130768201b05fb46f8826287b02157cbeb9d78685868916ec519197eddb05d0a382546daff40ac3194ebcc2100439d
9bf4867c2ac3e6f251c2317e730758ba4976b2220ccf10d13312088896d8a45dfca4b3ab67fc26c7f9604123c30342133ea80fbf2f4160251aabfa10941d45cf
3956bf36d358ae0c2df432b47e3f6143d58177612136ac4bda83aa5b894208e0ad38aa184fccd6e206ac49ed440699d4c9a9a96d04c657c905258140267abbfc
ce62aedd1fae57ac3f6d29dff3f73869ffb3d8fabcfe41c6248e2f3ff3080f7dda83aa5b894208e0ad38aa184fccd6e206ac49ed440699d4d71a31e1169174ff
e08c3da92cec1751e3f4db980c0968442a130768201b05fbf61cdb79ee47d01bac814f09b2465f246e6d34c8e2d67f0187005fadba74cbf287622fd20bf8dcc5
1918d884cf9803f32b32145d2b776514e8ac9a0ac4c76f3e0d6f107b85259231b2f13c8408af9764a33b409405a7944fc687c2e90b8d13747ba55156dc66b18d
8d620769aadad8bfe3f4db980c096844d58177612136ac4bda83aa5b894208e0ad38aa184fccd6e206ac49ed440699d4c9a9a96d04c657c905258140267abbfc
5959f03be0c528b57f1df0dc2b4feba6ffb3d8fabcfe41c6248e2f3ff3080f7dda83aa5b894208e0ad38aa184fccd6e206ac49ed440699d4d71a31e1169174ff
434b7a19dcf492214dff6f0da7ca956f667e74a1a8289307da83aa5b894208e0ad38aa184fccd6e206ac49ed440699d4c9a9a96d04c657c905258140267abbfc
bb2b3db9c7a1915536806a8e381bf9a03d396723f0216f6c0cabbbd029ffc515279d722ee85fbc6562474e032a09f6f1e987e75e9ac8755dfa4c42fcf8399999
$CDNENCFINISH
.ends HBRIDGE
*$
*
.subckt DELAY_LINE VIN VOUT
$CDNENCSTART
eee8c5c7a2bc4b01f045f303678664e7916da0bae22e8cb0bba041dd67c69ce448ea70148a9ac1670c8926c1ac5057c8ccfcd77bf87ca9dc76057e5b11a55be4
6315f87d85fd06d0eedec955bd01bf9bfdd19479cfb6f7938530ce85166d9b067c99998061c856a07624bbc4c458c271d60e52f726a8e0a2614511a393b99f59
13f1d412f05a079f75748cf865b7c6c202ad93d405ca8e11da83aa5b894208e0ad38aa184fccd6e206ac49ed440699d4c9a9a96d04c657c905258140267abbfc
12bfa8221d454e020a4a4ae78fba5e1902ad93d405ca8e11da83aa5b894208e0ad38aa184fccd6e206ac49ed440699d4c9a9a96d04c657c905258140267abbfc
49643a72ccec8ee975748cf865b7c6c27954be43287af9bb7b438235ec042396108e528828f8c6703d396723f0216f6c0cabbbd029ffc5159b1eb62c145a09d8
$CDNENCFINISH
.ends DELAY_LINE
*$
*
.subckt HALF_HDRIVER VIN VDD VSS VOUTPOS VOUTNEG
$CDNENCSTART
eee8c5c7a2bc4b01f045f303678664e7916da0bae22e8cb0bba041dd67c69ce448ea70148a9ac1670c8926c1ac5057c8ccfcd77bf87ca9dc76057e5b11a55be4
bf8e80f155321ca656ba0005c26bce4757486d7c13647efb739bea62ba9e0fbd0d6037432ab83bdb39859341766fc92c3d396723f0216f6c4dca4177e8d7852e
2fc5ba443603414081c075e8608b16cb57486d7c13647efbe24c3f2b47bfd9dc0d6037432ab83bdb39859341766fc92c3d396723f0216f6c4dca4177e8d7852e
06f9730f3a43e7023a3af1167463be28ced3a8740c32e7be22bf1d9239b9501f0cd6d1f438909f515c75312f54497ac7ab4fd3c1113271dfdaaf129dd3db0386
1e86b12434f69a4356ba0005c26bce474aebb1baa5c61733df3aa880fb1f91f1bfc2b6a72ee44a860f035f9bf4b1ebd089bb5dcde4d71782071590c20a0d9dd9
f79d6cc8f988f40b81c075e8608b16cb4aebb1baa5c61733df3aa880fb1f91f1bfc2b6a72ee44a860f035f9bf4b1ebd089bb5dcde4d71782071590c20a0d9dd9
$CDNENCFINISH
.ends HALF_HDRIVER
*$
*
.subckt HDRIVER VDD VHA VHB VIA VIB VLA VLB VSS
$CDNENCSTART
eee8c5c7a2bc4b01f045f303678664e7916da0bae22e8cb0bba041dd67c69ce448ea70148a9ac1670c8926c1ac5057c8ccfcd77bf87ca9dc76057e5b11a55be4
39e5453ad7e8e68ab6145b49d276910cc40546877db0a0618c6dcd74085def31ec80a3284124895bda83aa5b894208e0ad38aa184fccd6e27781106986d06aff
f0c0144388ca9b92b6145b49d276910c0a132e7ff08f6b4f8c6dcd74085def31ec80a3284124895bda83aa5b894208e0ad38aa184fccd6e27781106986d06aff
$CDNENCFINISH
.ends HDRIVER
*$
*
.subckt BD_COMP VIP VIN REF VDD VSS VOP VON
$CDNENCSTART
eee8c5c7a2bc4b01f045f303678664e7916da0bae22e8cb0bba041dd67c69ce448ea70148a9ac1670c8926c1ac5057c8ccfcd77bf87ca9dc76057e5b11a55be4
a691a3325df4ac14bf01bb353051461c23ece007a5c08d02c223b41f68a701aa0cd6d1f438909f515c75312f54497ac7ab4fd3c1113271dfdaaf129dd3db0386
df441269dbbf0803bf01bb353051461ceeb78e9681212e02c223b41f68a701aa0cd6d1f438909f515c75312f54497ac7ab4fd3c1113271dfdaaf129dd3db0386
$CDNENCFINISH
.ends BD_COMP
*$
*
.subckt FD_OPA VDD VN VP VOUTP VOUTN VSS VCM
$CDNENCSTART
eee8c5c7a2bc4b01f045f303678664e7916da0bae22e8cb0bba041dd67c69ce448ea70148a9ac1670c8926c1ac5057c8ccfcd77bf87ca9dc76057e5b11a55be4
f84847cd86d378dff1fef14d555e4497855943006563f839da83aa5b894208e0ad38aa184fccd6e206ac49ed440699d4c9a9a96d04c657c905258140267abbfc
c1a1977e4f5590b92f4ec39aac7646152456e95b87d85a20da83aa5b894208e0ad38aa184fccd6e206ac49ed440699d4c9a9a96d04c657c905258140267abbfc
acec1664aed58cd6e54be89bab4a0b8ab7b15bfdbb026c28fdd19479cfb6f7938530ce85166d9b067c99998061c856a07624bbc4c458c2717c98db38d93f3efb
c3022b32e59a216baf767f21f2aade23b7b15bfdbb026c28fdd19479cfb6f7938530ce85166d9b067c99998061c856a07624bbc4c458c2717c98db38d93f3efb
29754af5c0b7ceb05695bef65febc795dfc0c4de2b6fd5ca85342de8872574a3cab503cf747edaf1ba20b1c0373fea28c8bc9c28b861633229549d80a2ac429e
3c29c4071bff554a60c3e32e119489687594ad8233ed3f3939859341766fc92c3d396723f0216f6c0cabbbd029ffc515279d722ee85fbc65f5cffb333a883253
19ee0fd29ef8481860c3e32e119489687594ad8233ed3f3939859341766fc92c3d396723f0216f6c0cabbbd029ffc515279d722ee85fbc65f5cffb333a883253
0578939522e6a652d8481745fe2edaf0ae3c0b229a8902e336806a8e381bf9a03d396723f0216f6c0cabbbd029ffc515279d722ee85fbc65f5cffb333a883253
0f60217b7887ad4e0051a076d2c4c5e053ec6e822e291c3e36806a8e381bf9a03d396723f0216f6c0cabbbd029ffc515279d722ee85fbc65f5cffb333a883253
2b573f6faec2952760a16ce39ec0eaa7ba52f27bcfb572526b4eac65f25159d0fdd19479cfb6f7938530ce85166d9b067c99998061c856a0861b18aa838d4698
cce34585b45e95818a51d27591355daa97b93a4be040c14c6b4eac65f25159d0fdd19479cfb6f7938530ce85166d9b067c99998061c856a0861b18aa838d4698
5ea34de6e6e3de9c9a38d2f1987569ddfb08f77cb6c2df9376617f42cd5d956b3d396723f0216f6c0cabbbd029ffc515279d722ee85fbc65f5cffb333a883253
98d61dff68b8b7505ab92dd0eb6a545bfb08f77cb6c2df9376617f42cd5d956b3d396723f0216f6c0cabbbd029ffc515279d722ee85fbc65f5cffb333a883253
f292a99be76ed59a2f4ec39aac76461556db7fcb55062953eedfe74cf5798c78cbeb9d78685868916ec519197eddb05d0a382546daff40ac3194ebcc2100439d
e42e4aee10906d676d0e474f4b51bcf307362e2289308035eedfe74cf5798c78cbeb9d78685868916ec519197eddb05d0a382546daff40ac3194ebcc2100439d
63044241920d3d5db70ee334f6c88747177442100154d80eeedfe74cf5798c78cbeb9d78685868916ec519197eddb05d0a382546daff40ac3194ebcc2100439d
11b4e9aa55e8731c45d7955eedc2187f07362e2289308035eedfe74cf5798c78cbeb9d78685868916ec519197eddb05d0a382546daff40ac3194ebcc2100439d
d7072740a938f0e7cbd9496c8d3c627f90248b1a546ac7b2b330bd2f4e6bcafaf3a1c01c223659ebd17c170861efb771da83aa5b894208e0cd8f2fdd96a559b8
$CDNENCFINISH
.ends FD_OPA
*$
*
.subckt CLASSD VIN VIP AVDD PVDD AGND DGND OUTP OUTN VTRI SDB
$CDNENCSTART
eee8c5c7a2bc4b01f045f303678664e7916da0bae22e8cb0bba041dd67c69ce448ea70148a9ac1670c8926c1ac5057c8ccfcd77bf87ca9dc76057e5b11a55be4
6932c31d888c9cdad0ed5d9f66b56c0b806be38ce54e2acbf1cf582fd1dc709b08b63ce2a440cb1431bd1567c85b098f6a4bcedbfdc48b2bd38aff4e12555a5d
847290c32d9ec36d3e032dcb080c35861402f0fbeda81011d91e04ca7a97db30f71f04c765b3d3a7b5efe682c4e93fa278187b238fa6b756c76d0b1c1b8a2bc9
3517d7bab856f4469b611fe41eb265458992655273329405f150f49b8ece1bec4d6698931a982d9a9f1a00874f63590d59a013b5b3f9f5dc7ba55156dc66b18d
aebfba6b4eff2c8963e50f15122fcf8d85e02ec8f610646d94567a2baf183cc5ccc6437bbbf7bf5068963a384934cc0a520708d8a30bcd8482a2c63cfa83007d
c1a6bb9dd49b77e9b855316652ec276b06fd3cb5308158f9ca9f384f34ed18f92dbf112b3e463b1543b60868bc2152d411662f65eab8040bb4178d6b654111f0
3002d96e1f1804c9287ada4c0590cac2125143ada1a920e52f2bd09e50f291d2cbeb9d78685868916ec519197eddb05d0a382546daff40ac3194ebcc2100439d
93aa71a4d20969701142e6b238feda59a57a8e011c641fb92f2bd09e50f291d2cbeb9d78685868916ec519197eddb05d0a382546daff40ac3194ebcc2100439d
bbf67b2655357b8045fd18827bfe3707e92b1c6754cf80f5fdd19479cfb6f7938530ce85166d9b067c99998061c856a07624bbc4c458c2717c98db38d93f3efb
2ca71c1cad1fcd145dce7ea2479ea7dbe92b1c6754cf80f5fdd19479cfb6f7938530ce85166d9b067c99998061c856a07624bbc4c458c2717c98db38d93f3efb
dfc910357b7a75d7a9835f343fcf05450174887eb59fc2c6da83aa5b894208e0ad38aa184fccd6e206ac49ed440699d4c9a9a96d04c657c905258140267abbfc
532e3ca841722499c178fd929eaa58d00174887eb59fc2c6da83aa5b894208e0ad38aa184fccd6e206ac49ed440699d4c9a9a96d04c657c905258140267abbfc
$CDNENCFINISH
.ends CLASSD
*$
*
.subckt MASTER_S MSTR_SLV SYNC VREF VDD VSS OUT
$CDNENCSTART
eee8c5c7a2bc4b01f045f303678664e7916da0bae22e8cb0bba041dd67c69ce448ea70148a9ac1670c8926c1ac5057c8ccfcd77bf87ca9dc76057e5b11a55be4
5a470bcb5e215717461e6efdef9bbba78ffeb85133f1c8a6734d56d266b9f479bceae41b19a6563985342de8872574a3cab503cf747edaf1aea45c7a53fd4dec
38c2fa48814bc0a55ba8b329b54dc4750fd3f0b86b9c9351989cc17179856527bceae41b19a6563985342de8872574a3cab503cf747edaf1aea45c7a53fd4dec
4ab5501318adc84496907d7144cf1f180fd3f0b86b9c93513509c4a25f670fd0bceae41b19a6563985342de8872574a3cab503cf747edaf1aea45c7a53fd4dec
4c7c1dde9bbccd7fadbe3636979160de28f0769b0ad83242d51dc7c60680979df60238c9bf7d2fa3bbc71c20cb7150683d396723f0216f6c4dca4177e8d7852e
7ea751dec964823619c751c44ea7cbac5813a2e5ff9998c968910eea0666519ff60238c9bf7d2fa3bbc71c20cb7150683d396723f0216f6c4dca4177e8d7852e
346e325eb482df4a19b580c90072292b18a2e1e30d7b1840f8c6fc18a0c528c72bf5e637376b107fcbeb9d78685868916ec519197eddb05d801af816a226256c
6cd76c3df75bd32a9b2a07351fc86896a63741f585d554e0f8c6fc18a0c528c72bf5e637376b107fcbeb9d78685868916ec519197eddb05d801af816a226256c
a8c10cda29b422cc991ff2fe8b078569477a8362f39f9eaef8c6fc18a0c528c72bf5e637376b107fcbeb9d78685868916ec519197eddb05d801af816a226256c
5dd5ce720709b40ff223d30137534a8a97d7644b539a55980cd6d1f438909f515c75312f54497ac7ab4fd3c1113271df44c926e83b8a8e55664fad8764a19efa
9fbce611dde1c23e15ebbf0390f82db5bacfff965d8532f40e32f1f4f663bf4a25b3e32c71ce469725b3e32c71ce4697ed857e222a29377bd795d78225cb75aa
27799ea7417ec6e79e6642837cba87fb456c646196435225812665c578b1e33f651eac511a9597ff875299020624350ac7163ef0844f41c951b75f4ecf5883e5
9a528a52feff30373933c6bc8d7880595ba0a5e63347ab7a350250ba6123b955bfc2b6a72ee44a860f035f9bf4b1ebd089bb5dcde4d71782071590c20a0d9dd9
42e1bc1c5bd2c3408d3ba9d491f476f4d8c78d2f0830b1c485342de8872574a3cab503cf747edaf1ba20b1c0373fea28c8bc9c28b861633229549d80a2ac429e
238b1368911466ded8806dc0cdb2850eb9be8eeccb4a829ffdd19479cfb6f7938530ce85166d9b067c99998061c856a07624bbc4c458c2717c98db38d93f3efb
7251ea26dec21ede3d970aaa523f4c5db9be8eeccb4a829ffdd19479cfb6f7938530ce85166d9b067c99998061c856a07624bbc4c458c2717c98db38d93f3efb
58ea28d84b6069cf9a38d2f1987569ddb9be8eeccb4a829ffdd19479cfb6f7938530ce85166d9b067c99998061c856a07624bbc4c458c2717c98db38d93f3efb
5d792f0f67b68de7b72207ef362e7ab8de2a2bdaff011c600cd6d1f438909f515c75312f54497ac7ab4fd3c1113271df44c926e83b8a8e55664fad8764a19efa
985c216ad88f176bd8e3169a8260be453f00c6c8782369460cd6d1f438909f515c75312f54497ac7ab4fd3c1113271df44c926e83b8a8e55664fad8764a19efa
fbf0803d6381e722549969a2f8585b2f3f00c6c8782369460cd6d1f438909f515c75312f54497ac7ab4fd3c1113271df44c926e83b8a8e55664fad8764a19efa
9a0beca918d8aa873d970aaa523f4c5dde2a2bdaff011c600cd6d1f438909f515c75312f54497ac7ab4fd3c1113271df44c926e83b8a8e55664fad8764a19efa
bbf67b2655357b80d625e3ee02ee63b32ab3c23b853c76760cd6d1f438909f515c75312f54497ac7ab4fd3c1113271df44c926e83b8a8e55664fad8764a19efa
807437c4b6ab5eaa9d5024c7c73a2745c6462ead97302c7f0cd6d1f438909f515c75312f54497ac7ab4fd3c1113271df44c926e83b8a8e55664fad8764a19efa
3505ec3066486232ac162219e7918e0ca2e9e6d35e2d325985342de8872574a3cab503cf747edaf1ba20b1c0373fea28c8bc9c28b861633229549d80a2ac429e
bf2f0728ddf60d971aaaf2b2df6e24dca2e9e6d35e2d325985342de8872574a3cab503cf747edaf1ba20b1c0373fea28c8bc9c28b861633229549d80a2ac429e
78aec814bf3e51e04f6be1411345b56bb469a8d685c03837b7ba9cd41dc187f268210c2be9dda1fd5d0d2970852fcd910ebff7ac66c140d4d38aff4e12555a5d
$CDNENCFINISH
.ends MASTER_S
*$
*
.subckt PGA_AND_LOGIC G0 G1 VREF VDD VIN VIP VON VOP VSS
$CDNENCSTART
eee8c5c7a2bc4b01f045f303678664e7916da0bae22e8cb0bba041dd67c69ce448ea70148a9ac1670c8926c1ac5057c8ccfcd77bf87ca9dc76057e5b11a55be4
7094c0cca6e7eb0089a3be7acf0f081ee44a012bde17cc8bd28371361d0f9dde3a693de3a0c4834cda83aa5b894208e0ad38aa184fccd6e27781106986d06aff
a4e649c1f9963e1f89a3be7acf0f081e513e8592990f6664d28371361d0f9dde3a693de3a0c4834cda83aa5b894208e0ad38aa184fccd6e27781106986d06aff
9905fbfdfd7e9a34a26e96e2a27ea61a567984aa31308958d28371361d0f9dde3a693de3a0c4834cda83aa5b894208e0ad38aa184fccd6e27781106986d06aff
3580233143e5ec6a8e0111c8a1aa246083759cfae432c4e3d28371361d0f9dde3a693de3a0c4834cda83aa5b894208e0ad38aa184fccd6e27781106986d06aff
94048c64d83c644f092c92dd2288558f6b4b0e790a7ec63b590d9ca84d37218a3a693de3a0c4834cda83aa5b894208e0ad38aa184fccd6e27781106986d06aff
df611559786517fe7c6d0d3f71037d711a9c4f7103b2afa2efd552aac89be14f3a693de3a0c4834cda83aa5b894208e0ad38aa184fccd6e27781106986d06aff
b0fbef3964da9abf745201e3b64fa90c6b4b0e790a7ec63b7b5323018135d18a3a693de3a0c4834cda83aa5b894208e0ad38aa184fccd6e27781106986d06aff
9b18a5a662d61e4b4ea0b67eb6b37b105a31eadfc68c68b8efd552aac89be14f3a693de3a0c4834cda83aa5b894208e0ad38aa184fccd6e27781106986d06aff
295ae6cb50c9159612d56442b33389ab0dbf9494ff95fc24d2e10e5058578f3a3a693de3a0c4834cda83aa5b894208e0ad38aa184fccd6e27781106986d06aff
0ab5d1dafbc4227a613aaa6e9b7a8ba16b4b0e790a7ec63bc8019e189f1f18da3a693de3a0c4834cda83aa5b894208e0ad38aa184fccd6e27781106986d06aff
9ec55a1dda1cf66cb69a87e3e6d5b2ee0fd3f0b86b9c93511b5326ce9a64ef2a19504ca2a66720d385342de8872574a3cab503cf747edaf1aea45c7a53fd4dec
03f54d4064a075da7aba4864a6e535c2639c8069d3bb527b23951db30e8f6c3f1a4095a6d9b06d765ba835e955e13c84fdd19479cfb6f793f166ad3caee56be9
64c084bab4abbfe886dd9f7af4f81c55b6145b49d276910c05413f125698c4583cd8159fc2975420fdd19479cfb6f7938530ce85166d9b068bc9184eb970357c
aaa2113c2391ccd0693f8e9c6d91a0adb6145b49d276910ca3932fe0582c39403cd8159fc2975420fdd19479cfb6f7938530ce85166d9b068bc9184eb970357c
c7e24fca4a3c8de075017fc28b2f8458b6145b49d276910c81f943f91d8a05843cd8159fc2975420fdd19479cfb6f7938530ce85166d9b068bc9184eb970357c
de84bf9bc99d469f5b6528afcc5ad4d2b6145b49d276910cc3faf836fdf62e083cd8159fc2975420fdd19479cfb6f7938530ce85166d9b068bc9184eb970357c
fcc86096a9622605fa9fbb2b03af29d6b52a67ba6bbb9aa8c5a258e9d865fc4a07010312d210c280cee5baf9098c9277fdd19479cfb6f793f166ad3caee56be9
ac2c77f0f5165cfddafce0bcf0aee1613d5ec19025263095e7ab4ffdc7f98d2d370ef448a8b81364fdd19479cfb6f7938530ce85166d9b068bc9184eb970357c
6161f6452c422dd3dafce0bcf0aee1613d5ec1902526309534c97c3dd1c2c43c370ef448a8b81364fdd19479cfb6f7938530ce85166d9b068bc9184eb970357c
42e52774a1466442a7f3df439e85a5be41207ab67acde2f4b2b5f9fa0c9a2e44370ef448a8b81364fdd19479cfb6f7938530ce85166d9b068bc9184eb970357c
44ba9774efbb1e1aca9b9b54d9d02df641207ab67acde2f490675c43d68d27df370ef448a8b81364fdd19479cfb6f7938530ce85166d9b068bc9184eb970357c
70d0dad8d4c370c93ffe42bd8ca53c121642966e440dda533809932d9cb88f68370ef448a8b81364fdd19479cfb6f7938530ce85166d9b068bc9184eb970357c
646584af286a82963ffe42bd8ca53c121642966e440dda539676c0de8a518318370ef448a8b81364fdd19479cfb6f7938530ce85166d9b068bc9184eb970357c
c6f3c7fe72746075301c579d22529221b38ae75cd602cd87da83aa5b894208e0ad38aa184fccd6e206ac49ed440699d4c9a9a96d04c657c905258140267abbfc
7a47bd3d0e2089bc301c579d22529221b38ae75cd602cd87da83aa5b894208e0ad38aa184fccd6e206ac49ed440699d4c9a9a96d04c657c905258140267abbfc
*RS6  VSS     VON 1e9
*RS7  VOP     VSS 1e9
*RS11 NET0135 VSS 1e9
*RS10 NET149  VSS 1e9
*RS9  NET153  VSS 1e9
*RS8  NET183  VSS 1e9
*RS0  NET0101 VSS 1e9
*RS2  NET189  VSS 1e9
*RS1  NET0160 VSS 1e9
*RS3  NET145  VSS 1e9
*RS5  NET0176 VSS 1e9
*RS4  NET0188 VSS 1e9
d3479160f3e97a47fea583e0645922a53dd9205f12f9ca6b76617f42cd5d956b3d396723f0216f6c0cabbbd029ffc515279d722ee85fbc65f5cffb333a883253
36b1007a6db802b89ecff554c0a963f1ea35430eea7ef8e72d2387b8abf11259cbeb9d78685868916ec519197eddb05d0a382546daff40ac3194ebcc2100439d
42dd2a1fd2dfdc9cfea583e0645922a5da4b2a5aceeff1d476617f42cd5d956b3d396723f0216f6c0cabbbd029ffc515279d722ee85fbc65f5cffb333a883253
9411216003313eb35f3149b6d59a94d666e85d8661e2e27176617f42cd5d956b3d396723f0216f6c0cabbbd029ffc515279d722ee85fbc65f5cffb333a883253
9d67e28ae52325c0a14cfdb2c7516cc0adf62fd839cd71a82d2387b8abf11259cbeb9d78685868916ec519197eddb05d0a382546daff40ac3194ebcc2100439d
eff42039bd208dcbe972f50c40bccbb81ceb3d724abd425c2d2387b8abf11259cbeb9d78685868916ec519197eddb05d0a382546daff40ac3194ebcc2100439d
b2a84755e8655509469e1b1f885707bc78b5414e4942f80576617f42cd5d956b3d396723f0216f6c0cabbbd029ffc515279d722ee85fbc65f5cffb333a883253
4a8387ff70a6cbf35dd45d7fc3303218a1818e6115f03d3e2d2387b8abf11259cbeb9d78685868916ec519197eddb05d0a382546daff40ac3194ebcc2100439d
2ccbaed9c3923e6cfea583e0645922a5cd1500445411306d2d2387b8abf11259cbeb9d78685868916ec519197eddb05d0a382546daff40ac3194ebcc2100439d
663eb9372de7c1f15e7b3cfc14afd71a7a1be081397fa4d62d2387b8abf11259cbeb9d78685868916ec519197eddb05d0a382546daff40ac3194ebcc2100439d
c6fa6598483bc80d8d72644c3ee76efb9f556126f8cf8de54bd26db63262eecdde82a62570882c59715357afbb9c99f176617f42cd5d956bba74d6f05e1f6f93
$CDNENCFINISH
.ends PGA_AND_LOGIC
*$
*
.SUBCKT HPA_COMP INP INN VDD VSS OUT 
$CDNENCSTART
eee8c5c7a2bc4b01f045f303678664e7916da0bae22e8cb0bba041dd67c69ce448ea70148a9ac1670c8926c1ac5057c8ccfcd77bf87ca9dc76057e5b11a55be4
4aecbd571c734d56dc051b9a91e3562f77af36515caea6831f94ce323b2379e2ab6d53f9254db7fac6fb9f6d51be684ec58d62dbb94f825d1aabfa10941d45cf
9f31e960a3ec882d57e2c5aa80851370cbeb9d78685868916ec519197eddb05d0a382546daff40ac36dc2a0c8a20048fc78493a06513424b6c244e73d76bfd94
$CDNENCFINISH
.ENDS HPA_COMP
*$
*
.SUBCKT HPA_OR2 A B VDD VSS Y 
$CDNENCSTART
eee8c5c7a2bc4b01f045f303678664e7916da0bae22e8cb0bba041dd67c69ce448ea70148a9ac1670c8926c1ac5057c8ccfcd77bf87ca9dc76057e5b11a55be4
76a24387120617698492e52ca99071374b8bce2e5904be9cec381dc02c67ecc6b02ab3a652c170fabaa64027a50a41942ab270c3bcf7270bcd5d4019462ea820
90b3cb9e2471d1574d5b1b73307b1303bfc2b6a72ee44a860f035f9bf4b1ebd089bb5dcde4d717822dd3adf139dcccb9e1a1eae9b4cdea01f448b47873114116
43fe8f7f50f893ca4170694978eb4cf8bfc2b6a72ee44a860f035f9bf4b1ebd089bb5dcde4d717822dd3adf139dcccb9e1a1eae9b4cdea01f448b47873114116
c14e9d91a39ee768aafa52e4ed6a316a5b31487805496d833d396723f0216f6c0cabbbd029ffc515279d722ee85fbc6562474e032a09f6f13d18538c344b893a
$CDNENCFINISH
.ENDS HPA_OR2
*$
*
.subckt HPA_OR3 A B C VDD VSS Y
$CDNENCSTART
eee8c5c7a2bc4b01f045f303678664e7916da0bae22e8cb0bba041dd67c69ce448ea70148a9ac1670c8926c1ac5057c8ccfcd77bf87ca9dc76057e5b11a55be4
964f21b9b4d06d1fc289e2a3e4207ce63012062cd9e8a6ea52d7793e38430dd2bad9e6da7006a239cbeb9d78685868916ec519197eddb05d801af816a226256c
19d9fabe2f1e5b3ddaac9a40210261073722bd42da732d3920c3a2ba90f886b6bad9e6da7006a239cbeb9d78685868916ec519197eddb05d801af816a226256c
$CDNENCFINISH
.ends HPA_OR3
*$
*
.SUBCKT HPA_AND2 A B VDD VSS Y 
$CDNENCSTART
eee8c5c7a2bc4b01f045f303678664e7916da0bae22e8cb0bba041dd67c69ce448ea70148a9ac1670c8926c1ac5057c8ccfcd77bf87ca9dc76057e5b11a55be4
76a24387120617698492e52ca99071374b8bce2e5904be9cec381dc02c67ecc68d7cd8bf472a6080baa64027a50a41942ab270c3bcf7270bcd5d4019462ea820
90b3cb9e2471d1574d5b1b73307b1303bfc2b6a72ee44a860f035f9bf4b1ebd089bb5dcde4d717822dd3adf139dcccb9e1a1eae9b4cdea01f448b47873114116
43fe8f7f50f893ca4170694978eb4cf8bfc2b6a72ee44a860f035f9bf4b1ebd089bb5dcde4d717822dd3adf139dcccb9e1a1eae9b4cdea01f448b47873114116
c14e9d91a39ee768aafa52e4ed6a316a5b31487805496d833d396723f0216f6c0cabbbd029ffc515279d722ee85fbc6562474e032a09f6f13d18538c344b893a
$CDNENCFINISH
.ENDS
*$
*
.SUBCKT HPA_INV A VDD VSS Y 
$CDNENCSTART
eee8c5c7a2bc4b01f045f303678664e7916da0bae22e8cb0bba041dd67c69ce448ea70148a9ac1670c8926c1ac5057c8ccfcd77bf87ca9dc76057e5b11a55be4
d2b564f4f40c22138492e52ca99071374b8bce2e5904be9cebd61d044dec776f2b2d23a8ef711f10c7efa790c3036744aa08b92353c3ed287ba55156dc66b18d
0e39099ea1563cc34170694978eb4cf8bfc2b6a72ee44a860f035f9bf4b1ebd089bb5dcde4d717822dd3adf139dcccb9e1a1eae9b4cdea01f448b47873114116
c14e9d91a39ee768aafa52e4ed6a316a5b31487805496d833d396723f0216f6c0cabbbd029ffc515279d722ee85fbc6562474e032a09f6f13d18538c344b893a
$CDNENCFINISH
.ENDS
*$
.SUBCKT HPA_BUF A VDD VSS Y 
$CDNENCSTART
eee8c5c7a2bc4b01f045f303678664e7916da0bae22e8cb0bba041dd67c69ce448ea70148a9ac1670c8926c1ac5057c8ccfcd77bf87ca9dc76057e5b11a55be4
d2b564f4f40c22138492e52ca99071374b8bce2e5904be9cebd61d044dec776fc09ddda6067a04cccf670e5eee79662faa08b92353c3ed287ba55156dc66b18d
0e39099ea1563cc34170694978eb4cf8bfc2b6a72ee44a860f035f9bf4b1ebd089bb5dcde4d717822dd3adf139dcccb9e1a1eae9b4cdea01f448b47873114116
c14e9d91a39ee768aafa52e4ed6a316a5b31487805496d833d396723f0216f6c0cabbbd029ffc515279d722ee85fbc6562474e032a09f6f13d18538c344b893a
$CDNENCFINISH
.ENDS
*$
*
.SUBCKT SWITCH_PS A SWD SWC PARAMS: vth=500e-3 ron=1 roff=1e6 tdelay=1e-9 trise=1e-9
+ tfall=1e-9 initval=0
$CDNENCSTART
eee8c5c7a2bc4b01f045f303678664e7916da0bae22e8cb0bba041dd67c69ce448ea70148a9ac1670c8926c1ac5057c8ccfcd77bf87ca9dc76057e5b11a55be4
f89fb26c303a4c8981b03407f9499a36bf6eb2a6d9971ad7c6a6922a17d269010cd6d1f438909f515c75312f54497ac7ab4fd3c1113271dfdaaf129dd3db0386
78aec814bf3e51e04f6be1411345b56bb469a8d685c038370cf9f34ef7439c7d68210c2be9dda1fd5d0d2970852fcd910ebff7ac66c140d4d38aff4e12555a5d
$CDNENCFINISH
.ENDS SWITCH_PS
*
*$
.SUBCKT PSW_PS D G S PARAMS: RONval=1e-3 VTHval=0.7 VCHARval=0.01 CGval=0.01pF CDval=0.01pF 
$CDNENCSTART
eee8c5c7a2bc4b01f045f303678664e7916da0bae22e8cb0bba041dd67c69ce448ea70148a9ac1670c8926c1ac5057c8ccfcd77bf87ca9dc76057e5b11a55be4
3f510a0fa0d9a58d00037464c659791985342de8872574a3cab503cf747edaf1ba20b1c0373fea28c8bc9c28b86163322f1a0a5b800dc65fe3fc57dc915fe696
4fee993ae8eff14300037464c659791985342de8872574a3cab503cf747edaf1ba20b1c0373fea28c8bc9c28b86163322f1a0a5b800dc65fe3fc57dc915fe696
c8baedcc8773edc600037464c659791985342de8872574a3cab503cf747edaf1ba20b1c0373fea28c8bc9c28b86163322f1a0a5b800dc65fe3fc57dc915fe696
36e77ffbd2e958de9ce28abedde281fd85342de8872574a3cab503cf747edaf1ba20b1c0373fea28c8bc9c28b86163322f1a0a5b800dc65fe3fc57dc915fe696
4c3141c46a36e1abda49105010470d0185342de8872574a3cab503cf747edaf1ba20b1c0373fea28c8bc9c28b86163322f1a0a5b800dc65fe3fc57dc915fe696
bcc2b5d8d2a44ed3e36ada7603e37bde979added4bba322b584a1251b11bb09b8577b07d1241b40e26d29dc8994456ec13ba82e50acd77de3a0a9594a3099b04
5a8ca3732b7d40643f730f3e2357fdcd72cc4e0395929afecaa5e0711288816a3e3bed9e00fb4633714f855d3587b318000fc12d735d5beb69ba81bc9f61e2f4
ceaf4f6c775c0b0150a36120f822a26cc28bd7eced7ae73285342de8872574a3cab503cf747edaf1ba20b1c0373fea28c8bc9c28b861633229549d80a2ac429e
$CDNENCFINISH
.ENDS PSW_PS
*
*$
.SUBCKT NSW_PS D G S PARAMS: RONval=10k VTHval=0.7 VCHARval=0.01 CGval=0.01pF CDval=0.01pF 
$CDNENCSTART
eee8c5c7a2bc4b01f045f303678664e7916da0bae22e8cb0bba041dd67c69ce448ea70148a9ac1670c8926c1ac5057c8ccfcd77bf87ca9dc76057e5b11a55be4
3f510a0fa0d9a58d00037464c659791985342de8872574a3cab503cf747edaf1ba20b1c0373fea28c8bc9c28b86163322f1a0a5b800dc65fe3fc57dc915fe696
4fee993ae8eff14300037464c659791985342de8872574a3cab503cf747edaf1ba20b1c0373fea28c8bc9c28b86163322f1a0a5b800dc65fe3fc57dc915fe696
c8baedcc8773edc600037464c659791985342de8872574a3cab503cf747edaf1ba20b1c0373fea28c8bc9c28b86163322f1a0a5b800dc65fe3fc57dc915fe696
36e77ffbd2e958de9ce28abedde281fd85342de8872574a3cab503cf747edaf1ba20b1c0373fea28c8bc9c28b86163322f1a0a5b800dc65fe3fc57dc915fe696
4c3141c46a36e1abda49105010470d0185342de8872574a3cab503cf747edaf1ba20b1c0373fea28c8bc9c28b86163322f1a0a5b800dc65fe3fc57dc915fe696
089ced6a6308970528f84a1a2d7ca963335c3b3a110c8601c552a1cc44af59da3fbc04582de7094b860d48867070ec9238bfb681e09abb5ccdf1807d451b6e18
6344dda27888449d3f730f3e2357fdcdd88055922e5b0740caa5e0711288816a3e3bed9e00fb4633714f855d3587b318f27a03f00fee2590181d004ce77541ec
860d48867070ec9238bfb681e09abb5c20a358c878b916bafdd19479cfb6f7938530ce85166d9b067c99998061c856a07624bbc4c458c2717c98db38d93f3efb
$CDNENCFINISH
.ENDS NSW_PS
*$
