Version 4
SHEET 1 880 1232
WIRE -368 -496 -384 -496
WIRE -336 -496 -368 -496
WIRE -112 -496 -256 -496
WIRE -16 -496 -32 -496
WIRE 48 -496 -16 -496
WIRE 80 -496 48 -496
WIRE -256 -480 -256 -496
WIRE -336 -464 -336 -496
WIRE -16 -464 -16 -496
WIRE -336 -384 -336 -416
WIRE -16 -368 -16 -400
WIRE -736 0 -800 0
WIRE -640 0 -736 0
WIRE -480 0 -560 0
WIRE -432 0 -480 0
WIRE -384 0 -432 0
WIRE -288 0 -384 0
WIRE -256 0 -288 0
WIRE -128 0 -176 0
WIRE -96 0 -128 0
WIRE 16 0 -96 0
WIRE 128 0 16 0
WIRE -96 16 -96 0
WIRE -624 80 -624 64
WIRE 16 80 16 0
WIRE -800 96 -800 0
WIRE -624 96 -624 80
WIRE -432 96 -432 0
WIRE -384 96 -384 0
WIRE -288 96 -288 0
WIRE 128 96 128 0
WIRE -96 112 -96 96
WIRE -96 128 -96 112
WIRE -800 208 -800 176
WIRE -624 208 -624 176
WIRE -432 208 -432 160
WIRE -384 208 -384 176
WIRE -288 208 -288 160
WIRE -96 208 -96 192
WIRE 128 208 128 176
WIRE 16 256 16 160
WIRE -96 272 -144 272
WIRE -48 272 -96 272
WIRE -48 336 -48 320
WIRE -144 368 -144 352
WIRE 16 368 16 336
WIRE -640 496 -688 496
WIRE -592 496 -640 496
WIRE -432 496 -512 496
WIRE -384 496 -432 496
WIRE -512 512 -512 496
WIRE -592 528 -592 496
WIRE -592 608 -592 576
WIRE -512 608 -512 592
WIRE -736 800 -800 800
WIRE -384 800 -736 800
WIRE -288 800 -384 800
WIRE -256 800 -288 800
WIRE -128 800 -176 800
WIRE -96 800 -128 800
WIRE 16 800 -96 800
WIRE 128 800 16 800
WIRE -96 816 -96 800
WIRE 16 880 16 800
WIRE -800 896 -800 800
WIRE -384 896 -384 800
WIRE -288 896 -288 800
WIRE 128 896 128 800
WIRE -96 912 -96 896
WIRE -96 928 -96 912
WIRE -800 1008 -800 976
WIRE -96 1008 -96 992
WIRE 128 1008 128 976
WIRE 16 1056 16 960
WIRE -96 1072 -144 1072
WIRE -48 1072 -96 1072
WIRE -48 1136 -48 1120
WIRE 16 1168 16 1136
FLAG -432 208 0
FLAG -800 208 0
FLAG -624 208 0
FLAG -480 0 sw_buck
FLAG -128 0 out_buck
FLAG 128 208 0
FLAG -96 208 0
FLAG -96 112 ca
FLAG -384 208 0
FLAG -288 208 0
FLAG 16 368 0
FLAG -576 64 0
FLAG -736 0 E
FLAG -624 80 p
FLAG -144 368 0
FLAG -48 336 0
FLAG -336 -384 0
FLAG -368 -496 out_buck
FLAG -256 -400 0
FLAG -16 -368 0
FLAG 48 -496 out_buck_fil
FLAG -592 608 0
FLAG -512 608 0
FLAG -432 496 As
FLAG -96 272 sw_load
FLAG -640 496 sw_load
FLAG -800 1008 0
FLAG -128 800 out_Lin
FLAG 128 1008 0
FLAG -96 1008 0
FLAG -96 912 ca_Lin
FLAG 16 1168 0
FLAG -736 800 S_lin
FLAG -48 1136 0
FLAG -96 1072 sw_load
SYMBOL ind -272 16 R270
WINDOW 0 30 56 VTop 2
WINDOW 3 6 56 VBottom 2
SYMATTR InstName L1
SYMATTR Value {L1}
SYMBOL schottky -416 160 R180
WINDOW 0 24 64 Left 2
WINDOW 3 24 0 Left 2
SYMATTR InstName D1
SYMATTR Value Dx
SYMATTR Description Diode
SYMATTR Type diode
SYMBOL cap -112 128 R0
SYMATTR InstName CA
SYMATTR Value {CA}
SYMBOL res -112 0 R0
SYMATTR InstName Rs1
SYMATTR Value {Rs}
SYMBOL res -400 80 R0
SYMATTR InstName Rpar1
SYMATTR Value 20k
SYMBOL cap -304 96 R0
SYMATTR InstName Cpar1
SYMATTR Value 400p
SYMBOL res 0 64 R0
SYMATTR InstName RL
SYMATTR Value {RL}
SYMBOL crtl-V-S -656 0 R270
SYMATTR InstName S1
SYMBOL source-V -800 80 R0
WINDOW 123 0 0 Left 2
WINDOW 39 28 109 Left 2
SYMATTR SpiceLine Rser=1m
SYMATTR InstName V1
SYMATTR Value 20
SYMBOL source-V -624 80 R0
WINDOW 3 -184 196 Left 2
WINDOW 123 0 0 Left 2
WINDOW 39 0 0 Left 2
SYMATTR Value PULSE(0 1 0 {trf} {trf} {p/(fsw)} {1/(fsw)})
SYMATTR InstName V2
SYMBOL source-I 128 176 M180
WINDOW 0 29 73 Left 2
WINDOW 3 29 17 Left 2
WINDOW 123 0 0 Left 2
WINDOW 39 0 0 Left 2
SYMATTR InstName I1
SYMATTR Value {IL}
SYMBOL crtl-V-S 16 240 R0
SYMATTR InstName S2
SYMBOL source-V -144 256 R0
WINDOW 0 35 57 Left 2
WINDOW 3 -148 158 Left 2
WINDOW 123 0 0 Left 2
WINDOW 39 0 0 Left 2
SYMATTR InstName V3
SYMATTR Value PULSE(0 1 3m {trf} {trf} 3m)
SYMBOL crtl-V-V -256 -496 R0
SYMATTR InstName E1
SYMATTR Value 1
SYMBOL res -16 -512 R90
WINDOW 0 7 56 VBottom 2
WINDOW 3 25 56 VTop 2
SYMATTR InstName R1
SYMATTR Value 330
SYMBOL cap -32 -464 R0
SYMATTR InstName C2
SYMATTR Value 100n
SYMBOL crtl-V-V -512 496 R0
WINDOW 3 -302 152 Left 2
SYMATTR Value Laplace=(1+s*Rs*CA)/(1+s*(Rs*Ca+L1/RL)+s**2*L1*CA*(1+Rs/RL))
SYMATTR InstName E2
SYMBOL ind -272 816 R270
WINDOW 0 30 56 VTop 2
WINDOW 3 6 56 VBottom 2
SYMATTR InstName L2
SYMATTR Value {L1}
SYMBOL cap -112 928 R0
SYMATTR InstName CA1
SYMATTR Value {CA}
SYMBOL res -112 800 R0
SYMATTR InstName Rs2
SYMATTR Value {Rs}
SYMBOL res 0 864 R0
SYMATTR InstName RL1
SYMATTR Value {RL}
SYMBOL source-V -800 880 R0
WINDOW 123 0 0 Left 2
WINDOW 39 28 109 Left 2
SYMATTR InstName V4
SYMATTR Value 4.7
SYMBOL source-I 128 976 M180
WINDOW 0 29 73 Left 2
WINDOW 3 29 17 Left 2
WINDOW 123 0 0 Left 2
WINDOW 39 0 0 Left 2
SYMATTR InstName I3
SYMATTR Value {IL}
SYMBOL crtl-V-S 16 1040 R0
SYMATTR InstName S3
TEXT -800 -200 Left 2 !.model sw  vswitch {Roff=1T Ron=1m Von=0.7 Voff=0.3 vh=-0.5}
TEXT -808 -496 Left 2 !.param fsw={1/33.3u}\n.param RL=10\n.param trf=100n\n.param Rs=200m\n.param L1=100u\n.param CA=100u\n.param p=0.25\n.param IL=1\n.param N=4
TEXT -800 -128 Left 2 !;.tran 0 20m {20m-N*33.3u}\n.tran 0 10m\n;ac oct 100 1 1meg
TEXT -208 -144 Left 2 ;.step param Rs list 100m 1m 500u
TEXT -800 -168 Left 2 !.model Dx D {Ron=1m Roff=1T Vfwd=0.4}
TEXT -208 -120 Left 2 ;.step param Rs list 1p 200m
TEXT -208 -96 Left 2 !.step param RL list 1T 10 5 2
