Version 4
SHEET 1 880 680
WIRE 0 -240 -32 -240
WIRE 128 -240 80 -240
WIRE 224 -240 192 -240
WIRE 240 -240 224 -240
WIRE 80 -208 80 -240
WIRE 0 -192 0 -240
WIRE 224 -192 224 -240
WIRE 0 -96 0 -144
WIRE 80 -96 80 -128
WIRE 224 -96 224 -112
FLAG 0 -96 0
FLAG 80 -96 0
FLAG 224 -96 0
FLAG -32 -240 sig_in
IOPIN -32 -240 In
FLAG 240 -240 AC
IOPIN 240 -240 Out
SYMBOL crtl-V-V 80 -224 R0
SYMATTR InstName E1
SYMATTR Value 1
SYMBOL res 208 -208 R0
SYMATTR InstName R1
SYMATTR Value {1/(2*pi*fc*1m)}
SYMBOL cap 128 -224 R270
WINDOW 0 32 32 VTop 2
WINDOW 3 0 32 VBottom 2
SYMATTR InstName C1
SYMATTR Value 1m
TEXT 0 -304 Left 2 !.param fc = 10
