Version 4
SHEET 1 880 680
WIRE 288 112 288 96
WIRE 288 192 288 176
FLAG 256 128 0
FLAG 256 160 0
SYMBOL AD8656 288 80 R0
SYMATTR InstName U1
SYMBOL source-Vmarker 288 96 R0
SYMATTR InstName U2
SYMBOL source-Vmarker 288 192 R0
SYMATTR Value V=-5V
SYMATTR InstName U3
