Version 4
SHEET 1 2160 884
WIRE 1680 -672 1632 -672
WIRE 1744 -672 1680 -672
WIRE 1808 -576 1808 -624
WIRE 1024 -512 896 -512
WIRE 1408 -496 1408 -544
WIRE 896 -464 896 -512
WIRE 800 -448 768 -448
WIRE 816 -448 800 -448
WIRE 1536 -448 1504 -448
WIRE 1648 -448 1616 -448
WIRE 1808 -448 1808 -496
WIRE 1808 -448 1728 -448
WIRE 1408 -384 1408 -416
WIRE 1728 -368 1728 -448
WIRE 1808 -368 1808 -448
WIRE 896 -352 896 -384
WIRE 1024 -352 1024 -512
WIRE 1648 -352 1648 -368
WIRE 1200 -336 1184 -336
WIRE 1232 -336 1200 -336
WIRE 1344 -336 1312 -336
WIRE 1968 -336 1968 -384
WIRE 1648 -256 1648 -304
WIRE 1728 -256 1728 -288
WIRE 1728 -256 1648 -256
WIRE 1808 -256 1808 -288
WIRE 1808 -256 1728 -256
WIRE 1408 -240 1408 -288
WIRE 1968 -240 1968 -256
WIRE 1728 -192 1728 -256
WIRE 592 -176 448 -176
WIRE -128 -128 -192 -128
WIRE -112 -128 -128 -128
WIRE 448 -128 448 -176
WIRE 592 -128 592 -176
WIRE 1968 -112 1968 -176
WIRE -192 -96 -192 -128
WIRE 976 -32 896 -32
WIRE 992 -32 976 -32
WIRE 1088 -32 1072 -32
WIRE 160 -16 160 -48
WIRE 448 0 448 -48
WIRE 592 0 592 -48
WIRE 1456 16 1376 16
WIRE 1568 16 1456 16
WIRE -96 32 -192 32
WIRE -80 32 -96 32
WIRE 1840 32 1840 -32
WIRE 896 48 896 -32
WIRE 976 48 976 -32
WIRE 784 64 752 64
WIRE 816 64 784 64
WIRE 1376 64 1376 16
WIRE 1456 64 1456 16
WIRE 1264 80 1232 80
WIRE 1296 80 1264 80
WIRE 160 96 160 64
WIRE 1728 96 1696 96
WIRE 1792 96 1728 96
WIRE -304 160 -320 160
WIRE -272 160 -304 160
WIRE -192 160 -192 112
WIRE 64 160 0 160
WIRE 112 160 64 160
WIRE 816 160 816 112
WIRE 896 160 896 128
WIRE 896 160 816 160
WIRE 976 160 976 128
WIRE 976 160 896 160
WIRE -272 176 -272 160
WIRE 1296 176 1296 128
WIRE 1376 176 1376 144
WIRE 1376 176 1296 176
WIRE 1456 176 1456 144
WIRE 1456 176 1376 176
WIRE 528 192 528 128
WIRE 896 192 896 160
WIRE 0 208 0 160
WIRE 1840 208 1840 128
WIRE 1376 224 1376 176
WIRE -272 256 -272 224
WIRE 416 256 384 256
WIRE 480 256 416 256
WIRE 0 304 0 288
WIRE 160 304 160 272
WIRE 208 304 160 304
WIRE 240 304 208 304
WIRE 528 320 528 288
WIRE 576 320 528 320
WIRE 608 320 576 320
WIRE 896 320 896 272
WIRE 160 352 160 304
WIRE 528 368 528 320
FLAG 160 -48 +5V
FLAG -192 -16 0
FLAG -128 -128 +5V
FLAG 0 304 0
FLAG 448 0 0
FLAG 592 0 0
FLAG 528 128 +5V
FLAG 64 160 Vg
FLAG 416 256 Vg
FLAG 208 304 mini
FLAG 576 320 JBF
FLAG 160 352 0
FLAG 528 368 0
FLAG 896 320 0
FLAG 784 64 Vg
FLAG 1088 -32 +5V
FLAG 816 -400 0
FLAG 800 -448 Vg
FLAG 896 -352 0
FLAG 1024 -352 0
FLAG 1376 224 0
FLAG 1264 80 Vg
FLAG 1568 16 +5V
FLAG 1728 -192 0
FLAG 1504 -448 Vg
FLAG 1408 -240 0
FLAG 1200 -336 Vg
FLAG 1680 -672 +20V
FLAG 1808 -624 +20V
FLAG 1408 -544 +20V
FLAG 1840 -32 +20V
FLAG 1728 96 Vg
FLAG 1840 208 0
FLAG 1968 -112 0
FLAG 1968 -384 stim
FLAG -272 256 0
FLAG -304 160 Vg
FLAG -192 240 0
FLAG -96 32 stim
SYMBOL njf 112 96 R0
SYMATTR InstName J1
SYMATTR Value miniJFET
SYMBOL voltage -192 -112 R0
WINDOW 123 0 0 Left 2
WINDOW 39 24 44 Left 2
SYMATTR InstName V1
SYMATTR Value 5
SYMBOL voltage 0 192 R0
WINDOW 123 0 0 Left 2
WINDOW 39 24 44 Left 2
SYMATTR InstName V2
SYMATTR Value 0
SYMBOL current 448 -48 R180
WINDOW 0 24 80 Left 2
WINDOW 3 24 0 Left 2
WINDOW 123 0 0 Left 2
WINDOW 39 0 0 Left 2
SYMATTR InstName I1
SYMATTR Value {K*(Vto)**2}
SYMBOL res 576 -144 R0
SYMATTR InstName R2
SYMATTR Value 1
SYMBOL njf 480 192 R0
SYMATTR InstName J2
SYMATTR Value JBF862
SYMBOL res 144 176 R0
SYMATTR InstName R4
SYMATTR Value 7.5
SYMBOL res 144 -32 R0
SYMATTR InstName R5
SYMATTR Value 0.8
SYMBOL res 960 32 R0
SYMATTR InstName R1
SYMATTR Value {1/(lambda*Id0)}
SYMBOL res 880 176 R0
SYMATTR InstName R3
SYMATTR Value 7.5
SYMBOL res 1088 -48 R90
WINDOW 0 0 56 VBottom 2
WINDOW 3 32 56 VTop 2
SYMATTR InstName R6
SYMATTR Value 0.8
SYMBOL crtl-V-I 896 -480 R0
SYMATTR InstName G2
SYMATTR Value {K}
SYMBOL crtl-V-I_INV 896 32 R0
SYMATTR InstName G1
SYMATTR Value {K}
SYMBOL EIT_Semiconductors\\npn 1344 -384 R0
SYMATTR InstName Q1
SYMATTR Value NPNx
SYMBOL res 1792 -592 R0
SYMATTR InstName R7
SYMATTR Value 1k
SYMBOL res 1392 -512 R0
SYMATTR InstName R8
SYMATTR Value 100
SYMBOL source-V 1648 -464 R0
WINDOW 123 0 0 Left 2
WINDOW 39 0 0 Left 2
SYMATTR InstName V3
SYMATTR Value 0.7
SYMBOL res 1632 -464 R90
WINDOW 0 0 56 VBottom 2
WINDOW 3 32 56 VTop 2
SYMATTR InstName R9
SYMATTR Value 10k
SYMBOL res 1328 -352 R90
WINDOW 0 0 56 VBottom 2
WINDOW 3 32 56 VTop 2
SYMATTR InstName R10
SYMATTR Value 10k
SYMBOL crtl-I-I_INV 1728 -384 R0
SYMATTR InstName U1
SYMATTR Value F={bfbjt}
SYMBOL source-Vmarker 1632 -672 R0
SYMATTR Value V=20V
SYMATTR InstName U2
SYMBOL njf 1792 32 R0
SYMATTR InstName J3
SYMATTR Value JFETx
SYMBOL Function-I 1376 144 R180
WINDOW 0 30 61 Left 2
WINDOW 3 -254 17 Left 2
SYMATTR InstName B1
SYMATTR Value I={K*(V(Vg)-Vto)**2}
SYMBOL diode 1952 -240 R0
SYMATTR InstName D1
SYMBOL res 1952 -352 R0
SYMATTR InstName R11
SYMATTR Value 1k
SYMBOL crtl-V-V -192 144 R0
SYMATTR InstName E1
SYMATTR Value 1
SYMBOL voltage -192 16 R0
WINDOW 123 0 0 Left 2
WINDOW 39 24 44 Left 2
SYMATTR InstName V4
SYMATTR Value 1
TEXT -224 312 Left 2 ;.tran 0 10m 0 1u
TEXT -304 -448 Left 2 !*   BF862 SPICE MODEL MARCH 2007 NXP SEMICONDUCTORS\n*   ENVELOPE    SOT23\n*   JBF862: 1, Drain,  2,Gate,  3,Source\n.model JBF862 NJF(Beta=47.800E-3 Betatce=-.5 Rd=.8 Rs=7.5000 Lambda=37.300E-3 Vto=-.57093\n+ Vtotc=-2.0000E-3 Is=424.60E-12 Isr=2.995p N=1 Nr=2 Xti=3 Alpha=-1.0000E-3\n+ Vk=59.97 Cgd=7.4002E-12 M=.6015 Pb=.5 Fc=.5 Cgs=8.2890E-12 Kf=87.5E-18\n+ Af=1)\n \n.model miniJFET NJF (beta=47e-3 Vto=-0.571 Lambda=37.300E-3 )
TEXT -304 -576 Left 2 ;K=Idss/Vp^2 = BETA = 47e-3 = Idss/(-0.57093)^2\n--> Idss = 47e-3*(-0.57093)^2 = 0.144\nr0=1/(lambda*Id0)\nId=k*(Ugs-Vp)^2 (aktiver bereich, Vgs>0 && Uds>Ugs-Vp
TEXT -216 352 Left 2 !.dc V2 -1 0.3 .01
TEXT 752 -264 Left 2 !.param K=47e-3\n.param Vto=-0.57093\n.param lambda=37.3e-3\n.param Id0=15m\n.param Ic0=3m\n.param Bfbjt=200
TEXT 1168 -176 Left 2 !.model NPNx NPN(Is={Ic0/exp(0.7V/26mV)} Bf={Bfbjt})
TEXT 1176 -120 Left 2 !.model JFETx NJF (beta=47e-3 Vto=-0.571 )
