Version 4
SHEET 1 880 680
WIRE 416 0 224 0
WIRE 224 16 224 0
WIRE 416 16 416 0
WIRE 160 64 144 64
WIRE 144 80 144 64
WIRE 416 112 416 96
WIRE 224 128 224 112
WIRE 288 128 224 128
WIRE 304 128 288 128
WIRE 336 128 304 128
WIRE 224 144 224 128
WIRE 336 144 336 128
WIRE 32 176 16 176
WIRE 128 192 96 192
WIRE 144 192 144 160
WIRE 144 192 128 192
WIRE 160 192 144 192
WIRE -16 208 -32 208
WIRE 32 208 -16 208
WIRE 336 256 336 224
WIRE 224 272 224 240
WIRE -32 288 -32 208
WIRE 224 384 224 352
WIRE -32 400 -32 368
WIRE 16 432 16 176
WIRE 288 432 288 128
WIRE 288 432 16 432
FLAG 336 256 0
FLAG 416 112 0
FLAG 224 384 0
FLAG -32 400 0
FLAG 304 128 out
FLAG -16 208 in
FLAG 128 192 o
SYMBOL res 320 128 R0
SYMATTR InstName RL
SYMATTR Value 8
SYMBOL EIT_Semiconductors\\npn 160 16 R0
SYMATTR InstName Q1
SYMATTR Value BD241C
SYMBOL source-V 416 0 R0
SYMATTR InstName V1
SYMATTR Value 15
SYMBOL EIT_Semiconductors\\pnp_o 160 144 R0
SYMATTR InstName Q2
SYMATTR Value BD242C
SYMBOL source-V 224 256 R0
SYMATTR InstName V2
SYMATTR Value -15
SYMBOL source-V -32 272 R0
WINDOW 123 0 0 Left 2
WINDOW 39 0 0 Left 2
SYMATTR InstName V3
SYMATTR Value SINE(0 10 10k)
SYMBOL EIT_Semiconductors\\op_3 64 192 R0
WINDOW 123 -44 -284 Left 2
WINDOW 3 -55 -254 Left 2
SYMATTR InstName U1
SYMATTR Value Vp=12 Vm=-12 Ilim=50m
SYMBOL source-V 144 64 R0
WINDOW 0 -47 8 Left 2
WINDOW 3 -67 58 Left 2
SYMATTR InstName V4
SYMATTR Value 1.2
TEXT 32 -8 Left 2 !.tran 200u
