Version 4
SHEET 1 880 680
WIRE 112 128 96 128
WIRE 144 128 112 128
WIRE 368 128 208 128
WIRE 448 128 368 128
WIRE 448 160 448 128
WIRE 96 176 96 128
WIRE 368 176 368 128
WIRE 368 272 368 240
WIRE 448 272 448 240
WIRE 80 304 64 304
WIRE 96 304 80 304
FLAG 96 256 0
FLAG 96 384 0
FLAG 448 272 0
FLAG 112 128 in
FLAG 80 304 in1
FLAG 368 128 out
FLAG 368 272 0
SYMBOL diode 144 144 R270
WINDOW 0 32 32 VTop 2
WINDOW 3 0 32 VBottom 2
SYMATTR InstName D1
SYMATTR Value 1N4007
SYMBOL Function-V 96 160 R0
SYMATTR InstName B1
SYMATTR Value V=5*sin(2*pi*50*time)
SYMBOL source-V 96 288 R0
WINDOW 123 0 0 Left 2
WINDOW 39 0 0 Left 2
SYMATTR InstName V1
SYMATTR Value SINE(0 5 50Hz)
SYMBOL res 432 144 R0
SYMATTR InstName R1
SYMATTR Value 100
SYMBOL cap 352 176 R0
SYMATTR InstName C1
SYMATTR Value {cx}
TEXT 56 48 Left 2 !.tran 100m
TEXT 72 8 Left 2 ;parametrische variation von C1
TEXT 224 56 Left 2 !.param cx=1000u
TEXT 40 -24 Left 2 !.step param cx list 220u 470u 1000u 2200u 1
