Version 4
SHEET 1 880 680
WIRE 400 -32 96 -32
WIRE 304 -16 224 -16
WIRE 224 0 224 -16
WIRE 304 32 304 -16
WIRE 400 96 400 -32
WIRE 224 112 224 80
WIRE 272 112 224 112
WIRE 320 112 272 112
WIRE 224 144 224 112
WIRE 96 192 96 -32
WIRE 112 192 96 192
WIRE 160 192 112 192
WIRE 400 192 400 176
WIRE 320 224 320 160
WIRE 224 272 224 240
WIRE 320 320 320 304
FLAG 224 272 0
FLAG 304 32 0
FLAG 400 192 0
FLAG 320 320 0
FLAG 272 112 c
FLAG 112 192 b
SYMBOL EIT_Semiconductors\\npn 160 144 R0
SYMATTR InstName Q1
SYMATTR Value 2N4124
SYMBOL source-I 224 80 R180
WINDOW 0 29 73 Left 2
WINDOW 3 29 17 Left 2
SYMATTR InstName IC
SYMATTR Value 1m
SYMBOL crtl-V-I 400 80 R0
SYMATTR InstName G1
SYMATTR Value 1
SYMBOL source-V 320 208 R0
SYMATTR InstName VCE
SYMATTR Value 5V
TEXT 104 256 Left 2 !;op
TEXT 80 352 Left 2 !.dc dec IC 0.01m 100m 10
TEXT 80 384 Left 2 !.step temp 0 125 25
