Version 4
SHEET 1 3708 1636
WIRE 128 80 48 80
WIRE 48 144 48 80
WIRE 48 256 48 224
WIRE 144 384 48 384
WIRE 592 384 480 384
WIRE 48 432 48 384
WIRE 480 432 480 384
WIRE 48 544 48 512
WIRE 480 560 480 512
WIRE 144 704 48 704
WIRE 656 704 544 704
WIRE 48 752 48 704
WIRE 544 752 544 704
WIRE 48 864 48 832
WIRE 544 880 544 832
WIRE 160 1056 48 1056
WIRE 656 1056 544 1056
WIRE 1264 1056 1152 1056
WIRE 48 1120 48 1056
WIRE 544 1120 544 1056
WIRE 1152 1120 1152 1056
WIRE 48 1248 48 1200
WIRE 544 1248 544 1200
WIRE 1152 1248 1152 1200
FLAG 48 256 0
FLAG 128 80 bit
IOPIN 128 80 Out
FLAG 48 544 0
FLAG 144 384 In_phase
IOPIN 144 384 Out
FLAG 144 704 Quadrature_phase
IOPIN 144 704 Out
FLAG 48 864 0
FLAG 592 384 I
IOPIN 592 384 Out
FLAG 544 880 0
FLAG 656 704 Q
IOPIN 656 704 Out
FLAG 48 1248 0
FLAG 160 1056 2-PSK_modulation
IOPIN 160 1056 Out
FLAG 480 560 0
FLAG 544 1248 0
FLAG 656 1056 amplitude
IOPIN 656 1056 Out
FLAG 1152 1248 0
FLAG 1264 1056 phase_degres
IOPIN 1264 1056 Out
SYMBOL bv 48 128 R0
WINDOW 3 -42 169 Left 2
SYMATTR Value V=int(2*rand(time*symbolFreq))
SYMATTR InstName B1
SYMBOL bv 48 416 R0
WINDOW 3 40 132 Left 2
SYMATTR Value V=if((V(bit)==1),1,-1)
SYMATTR InstName B5
SYMBOL bv 48 736 R0
WINDOW 3 34 137 Left 2
SYMATTR Value V=if((V(bit)==1),0,0)
SYMATTR InstName B6
SYMBOL bv 480 416 R0
SYMATTR InstName B7
SYMATTR Value V=V(In_phase)*sin(2*pi*carrierFreq*time)
SYMBOL bv 544 736 R0
SYMATTR InstName B8
SYMATTR Value V=V(Quadrature_phase)*cos(2*pi*carrierFreq*time)
SYMBOL bv 48 1104 R0
SYMATTR InstName B9
SYMATTR Value V=V(I)+V(Q)
SYMBOL bv 544 1104 R0
SYMATTR InstName B10
SYMATTR Value V=sqrt(V(Quadrature_phase)**2+V(In_phase)**2)
SYMBOL bv 1152 1104 R0
SYMATTR InstName B11
SYMATTR Value V=atan2(V(Quadrature_phase),V(In_phase))*180/pi
TEXT 40 1408 Left 2 !.tran 0 10m 0 100n
TEXT 40 1344 Left 2 !.params symbolFreq = 10000
TEXT 40 1376 Left 2 !.params carrierFreq = 20000
