Version 4
SHEET 1 1892 836
WIRE 688 240 512 240
WIRE 1376 240 1184 240
WIRE 1440 240 1376 240
WIRE 1184 272 1184 240
WIRE 1088 288 864 288
WIRE 1120 288 1088 288
WIRE 688 304 624 304
WIRE 1088 352 1008 352
WIRE 1120 352 1088 352
WIRE 1648 352 1552 352
WIRE 1680 352 1648 352
WIRE 1008 368 1008 352
WIRE 1184 368 1184 352
WIRE 464 384 384 384
WIRE 512 384 512 240
WIRE 512 384 464 384
WIRE 1552 384 1552 352
WIRE 1440 400 1440 240
WIRE 1504 400 1440 400
WIRE 240 448 160 448
WIRE 464 448 384 448
WIRE 512 448 464 448
WIRE 1504 448 1440 448
WIRE 1008 464 1008 448
WIRE 160 496 160 448
WIRE 160 592 160 576
WIRE 512 592 512 448
WIRE 688 592 512 592
WIRE 1376 592 1184 592
WIRE 1440 592 1440 448
WIRE 1440 592 1376 592
WIRE 1184 624 1184 592
WIRE 1088 640 864 640
WIRE 1120 640 1088 640
WIRE 624 656 624 304
WIRE 688 656 624 656
WIRE 624 688 624 656
WIRE 1088 704 1008 704
WIRE 1120 704 1088 704
WIRE 1008 720 1008 704
WIRE 1184 720 1184 704
WIRE 1008 816 1008 800
FLAG 160 592 0
FLAG 1184 368 0
FLAG 1376 240 InDout
FLAG 1184 720 0
FLAG 1376 592 QaDout
FLAG 464 384 In
FLAG 1088 288 InD
FLAG 624 768 0
FLAG 464 448 Qa
FLAG 1088 640 QaD
FLAG 1008 464 0
FLAG 1088 352 LoIn
FLAG 1008 816 0
FLAG 1088 704 LoQa
FLAG 1552 464 0
FLAG 1648 352 RF
SYMBOL SpecialFunctions\\modulate2 240 448 M180
WINDOW 3 -79 126 Left 2
SYMATTR Value space={F0} mark={F1}
SYMATTR InstName A1
SYMBOL voltage 160 480 R0
WINDOW 123 0 0 Left 2
WINDOW 39 0 0 Left 2
WINDOW 3 -85 148 Left 2
SYMATTR Value PULSE(0 1 0 {tb} 0)
SYMATTR InstName V1
SYMBOL bv 1184 256 R0
WINDOW 3 41 79 Left 2
SYMATTR Value V=V(InD)*V(LoIn)
SYMATTR InstName B1
SYMBOL bv 1184 608 R0
WINDOW 3 38 87 Left 2
SYMATTR Value V={QFAKTOR}*V(QaD)*V(LoQa)
SYMATTR InstName B2
SYMBOL SpecialFunctions\\sample 768 272 R0
SYMATTR InstName A2
SYMBOL voltage 624 672 R0
WINDOW 3 -188 131 Left 2
WINDOW 123 0 0 Left 2
WINDOW 39 0 0 Left 2
SYMATTR Value PULSE(0 1 0 1n 1n {1/(2*fa1)} {1/fa1})
SYMATTR InstName V2
SYMBOL SpecialFunctions\\sample 768 624 R0
SYMATTR InstName A3
SYMBOL voltage 1008 352 R0
WINDOW 0 39 46 Left 2
WINDOW 123 0 0 Left 2
WINDOW 39 0 0 Left 2
SYMATTR InstName V3
SYMATTR Value SINE(0 1 {flo} 0 0 0)
SYMBOL voltage 1008 704 R0
WINDOW 0 39 46 Left 2
WINDOW 123 0 0 Left 2
WINDOW 39 0 0 Left 2
SYMATTR InstName V4
SYMATTR Value SINE(0 1 {flo} 0 0 270)
SYMBOL bv 1552 368 R0
WINDOW 3 38 87 Left 2
SYMATTR Value V=V(InDout)-V(QaDout)
SYMATTR InstName B3
TEXT 96 32 Left 2 !.param fc=37meg\n.param B1={1.8*fc}\n.param F0=0\n.param F1=B1\n.param tb = 5u\n.param QFAKTOR = 1n
TEXT 112 248 Left 2 !.tran 0 {tb} 0
TEXT 336 96 Left 2 !.param fa1=4*160Meg\n.param flo=698Meg
TEXT 104 -72 Left 2 !.options plotwinsize=0\n.OPTIONS numdgt=7
TEXT 344 32 Left 2 ;.step param QFAKTOR list 0.1 0.3 0.5 1
