Version 4
SHEET 1 880 680
WIRE -1776 -1312 -2144 -1312
WIRE -1616 -1312 -1728 -1312
WIRE -1584 -1312 -1616 -1312
WIRE -2144 -1264 -2144 -1312
WIRE -2016 -1264 -2144 -1264
WIRE -1904 -1264 -1968 -1264
WIRE -1872 -1264 -1904 -1264
WIRE -1728 -1264 -1728 -1312
WIRE -1776 -1248 -1776 -1312
WIRE -2144 -1232 -2144 -1264
WIRE -1968 -1232 -1968 -1264
WIRE -2016 -1216 -2016 -1264
WIRE -1776 -1168 -1776 -1200
WIRE -1728 -1168 -1728 -1184
WIRE -2144 -1136 -2144 -1152
WIRE -2016 -1136 -2016 -1168
WIRE -1968 -1136 -1968 -1152
WIRE -1600 -896 -1616 -896
WIRE -1488 -896 -1520 -896
WIRE -1344 -896 -1360 -896
WIRE -1232 -896 -1264 -896
WIRE -960 -896 -976 -896
WIRE -848 -896 -880 -896
WIRE -704 -896 -720 -896
WIRE -592 -896 -624 -896
WIRE -1424 -784 -1872 -784
WIRE -1360 -784 -1424 -784
WIRE -1120 -784 -1280 -784
WIRE -1088 -784 -1120 -784
WIRE -720 -784 -880 -784
WIRE -688 -784 -720 -784
WIRE -1280 -768 -1280 -784
WIRE -880 -768 -880 -784
WIRE -1872 -752 -1872 -784
WIRE -2000 -720 -2112 -720
WIRE -1968 -720 -2000 -720
WIRE -1936 -720 -1968 -720
WIRE -464 -688 -528 -688
WIRE -416 -688 -464 -688
WIRE -1424 -672 -1632 -672
WIRE -1360 -672 -1424 -672
WIRE -1280 -672 -1280 -688
WIRE -880 -672 -880 -688
WIRE -1872 -656 -1872 -672
WIRE -1632 -640 -1632 -672
WIRE -528 -640 -528 -688
WIRE -1760 -592 -1936 -592
WIRE -1696 -592 -1760 -592
WIRE -2400 -576 -2480 -576
WIRE -2208 -576 -2256 -576
WIRE -2112 -576 -2112 -720
WIRE -2112 -576 -2208 -576
WIRE -2480 -544 -2480 -576
WIRE -1632 -544 -1632 -560
WIRE -528 -544 -528 -560
WIRE -2208 -512 -2256 -512
WIRE -2176 -512 -2208 -512
WIRE -1424 -464 -1632 -464
WIRE -1360 -464 -1424 -464
WIRE -1120 -464 -1280 -464
WIRE -1088 -464 -1120 -464
WIRE -720 -464 -880 -464
WIRE -688 -464 -720 -464
WIRE -2480 -448 -2480 -464
WIRE -1632 -448 -1632 -464
WIRE -1280 -448 -1280 -464
WIRE -880 -448 -880 -464
WIRE -2000 -416 -2000 -720
WIRE -1696 -416 -2000 -416
WIRE -1680 -416 -1696 -416
WIRE -1280 -352 -1280 -368
WIRE -880 -352 -880 -368
WIRE -1424 -336 -1824 -336
WIRE -1360 -336 -1424 -336
WIRE -1824 -304 -1824 -336
WIRE -2480 -288 -2480 -320
WIRE -1952 -272 -2064 -272
WIRE -1936 -272 -1936 -592
WIRE -1936 -272 -1952 -272
WIRE -1888 -272 -1936 -272
WIRE -2064 -224 -2064 -272
WIRE -2112 -208 -2112 -576
WIRE -1824 -208 -1824 -224
WIRE -2480 -192 -2480 -208
WIRE -2112 -128 -2112 -160
WIRE -2064 -128 -2064 -144
FLAG -2208 -512 cos
FLAG -2480 -448 0
FLAG -1872 -656 0
FLAG -1424 -784 X1
FLAG -1360 -896 0
FLAG -1232 -896 sin
FLAG -2208 -576 x
FLAG -2112 -128 0
FLAG -2064 -128 0
FLAG -1952 -272 Xh
FLAG -1616 -896 0
FLAG -1488 -896 cos
FLAG -1968 -720 x
FLAG -1632 -368 0
FLAG -1424 -464 X2
FLAG -1632 -544 0
FLAG -1424 -672 Xh2
FLAG -1824 -208 0
FLAG -1424 -336 Xh1
FLAG -1696 -416 x
FLAG -1760 -592 Xh
FLAG -1280 -672 0
FLAG -1280 -352 0
FLAG -1120 -784 I
FLAG -1120 -464 Q
FLAG -2016 -1136 0
FLAG -1968 -1136 0
FLAG -2144 -1136 0
FLAG -1904 -1264 x_o2
FLAG -1776 -1168 0
FLAG -1728 -1168 0
FLAG -1616 -1312 x_o1
FLAG -2480 -192 0
FLAG -2480 -320 fx
FLAG -880 -672 0
FLAG -880 -352 0
FLAG -720 -784 I_IF
FLAG -720 -464 Q_IF
FLAG -720 -896 0
FLAG -592 -896 sinIF
FLAG -976 -896 0
FLAG -848 -896 cosIF
FLAG -528 -544 0
FLAG -464 -688 ant
SYMBOL SpecialFunctions\\modulate2 -2400 -576 R0
WINDOW 3 -33 122 Left 2
SYMATTR Value space={Fmin} mark={Fmax}
SYMATTR InstName A1
SYMBOL voltage -2480 -560 R0
WINDOW 123 0 0 Left 2
WINDOW 39 0 0 Left 2
WINDOW 3 -53 152 Left 2
SYMATTR Value PULSE(0 1 0 {tb})
SYMATTR InstName V1
SYMBOL bv -1872 -768 R0
WINDOW 3 51 59 Left 2
SYMATTR Value V=V(x)*V(cos)
SYMATTR InstName B1
SYMBOL voltage -1248 -896 R90
WINDOW 3 -60 -37 VRight 2
WINDOW 123 0 0 Left 2
WINDOW 39 0 0 Left 2
SYMATTR Value SINE(0 1 {2*pi*F0})
SYMATTR InstName V2
SYMBOL e -2064 -240 R0
WINDOW 3 -153 145 Left 2
SYMATTR Value laplace=(1-s/{2*pi*f0h})/(1+s/{2*pi*f0h})
SYMATTR InstName E1
SYMBOL voltage -1504 -896 R90
WINDOW 3 -60 -57 VRight 2
WINDOW 123 0 0 Left 2
WINDOW 39 0 0 Left 2
SYMATTR Value SINE(0 1 {2*pi*F0} 0 0 270)
SYMATTR InstName V3
SYMBOL bv -1632 -464 R0
WINDOW 3 50 56 Left 2
SYMATTR Value V=V(x)*V(sin)
SYMATTR InstName B2
SYMBOL bv -1632 -656 R0
WINDOW 3 41 59 Left 2
SYMATTR Value V=V(Xh)*V(sin)
SYMATTR InstName B3
SYMBOL bv -1824 -320 R0
WINDOW 3 49 51 Left 2
SYMATTR Value V=V(Xh)*V(cos)
SYMATTR InstName B4
SYMBOL bv -1280 -784 R0
WINDOW 3 41 59 Left 2
SYMATTR Value V=V(X1)+V(Xh2)
SYMATTR InstName B5
SYMBOL bv -1280 -464 R0
WINDOW 3 41 59 Left 2
SYMATTR Value V=V(Xh1)-V(X2)
SYMATTR InstName B6
SYMBOL e -1968 -1248 R0
WINDOW 3 -213 161 Left 2
SYMATTR Value laplace=(1-(2*eps*s)/w0h+s**2/w0h**2)/(1+(2*eps*s)/w0h+s**2/w0h**2)
SYMATTR InstName E2
SYMBOL voltage -2144 -1248 R0
WINDOW 123 24 44 Left 2
WINDOW 39 0 0 Left 2
SYMATTR Value2 AC 1
SYMATTR InstName V4
SYMATTR Value ""
SYMBOL e -1728 -1280 R0
WINDOW 3 -153 145 Left 2
SYMATTR Value laplace=(1-s/{2*pi*f0h})/(1+s/{2*pi*f0h})
SYMATTR InstName E3
SYMBOL bv -2480 -304 R0
WINDOW 3 51 59 Left 2
SYMATTR Value V=((fmax-fmin)/tb)*time+fmin
SYMATTR InstName B7
SYMBOL bv -880 -784 R0
WINDOW 3 41 59 Left 2
SYMATTR Value V=V(I)*V(cosIF)
SYMATTR InstName B8
SYMBOL bv -880 -464 R0
WINDOW 3 41 59 Left 2
SYMATTR Value V=V(Q)*V(sinIF)
SYMATTR InstName B9
SYMBOL voltage -608 -896 R90
WINDOW 3 -60 -37 VRight 2
WINDOW 123 0 0 Left 2
WINDOW 39 0 0 Left 2
SYMATTR Value SINE(0 1 {2*pi*IF})
SYMATTR InstName V5
SYMBOL voltage -864 -896 R90
WINDOW 3 -60 -57 VRight 2
WINDOW 123 0 0 Left 2
WINDOW 39 0 0 Left 2
SYMATTR Value SINE(0 1 {2*pi*IF} 0 0 270)
SYMATTR InstName V6
SYMBOL bv -528 -656 R0
WINDOW 3 41 59 Left 2
SYMATTR Value V=V(I_IF)+V(Q_IF)
SYMATTR InstName B10
TEXT -2400 -920 Left 2 !.param Bw=5k\n.param fc=10k\n.param Fmin={fc-Bw/2}\n.param Fmax={fc+Bw/2}\n.param F0={500k/(2*pi)}\n.param tb = 5m
TEXT -2400 -712 Left 2 !.tran 0 {tb} 0
TEXT -2400 -688 Left 2 !.options plotwinsize=0
TEXT -2120 -920 Left 2 !;.param f0h = {fc*f0h_fact}\n.param f0h = 16.25k\n.param f0h_fact = 1\n.param w0h = {2*pi*f0h}\n.param eps=0.1
TEXT -2200 -1520 Left 2 ;.step param FREQ list 1 2 3 4\n.param f0h=table (FREQ,1,Fmin,2,Fc,3,(Fc+0.25*Bw),4,Fmax)
TEXT -2120 -960 Left 2 ;.step param eps list 0.1 1 2 5
TEXT -2120 -992 Left 2 ;.step param f0h list 12.5k 13.75k 15k 16.25k
TEXT -1536 -1576 Left 2 ;.step param f0h list 7.5k 10k 11.25k 12.5k\n.param Bw=5k\n.param fc=10k\n.param Fmin={fc-Bw/2}\n.param Fmax={fc+Bw/2}\n.param F0={500k/(2*pi)}\n.param tb = 25m
TEXT -840 -1200 Left 2 !.param IF = 500k
