Version 4
SHEET 1 880 680
WIRE 128 96 64 96
WIRE 64 128 64 96
WIRE -224 192 -304 192
WIRE -176 192 -176 48
WIRE -176 192 -224 192
WIRE -448 256 -528 256
WIRE -224 256 -304 256
WIRE -176 256 -224 256
WIRE -528 304 -528 256
WIRE -528 400 -528 384
WIRE -176 400 -176 256
FLAG 64 208 0
FLAG -528 400 0
FLAG -224 192 In
FLAG -224 256 Qa
SYMBOL SpecialFunctions\\modulate2 -448 256 M180
WINDOW 3 -79 126 Left 2
SYMATTR Value space={10k} mark={100k}
SYMATTR InstName A1
SYMBOL voltage -528 288 R0
WINDOW 123 0 0 Left 2
WINDOW 39 0 0 Left 2
WINDOW 3 -85 148 Left 2
SYMATTR Value PULSE(0 1 0 {tb})
SYMATTR InstName V2
SYMBOL bv 64 112 R0
SYMATTR InstName B1
SYMATTR Value V=V(In)*{amp}
TEXT 40 280 Left 2 !.param amp=1\n.step param amp list 0.5 0.707 1 1.414\n.param tb = 1m
TEXT -584 80 Left 2 !.tran 0 {tb} 0 
TEXT -576 56 Left 2 !.options plotwinsize=0
