Version 4
SHEET 1 2772 1236
WIRE 1248 0 880 0
WIRE 1408 0 1296 0
WIRE 1440 0 1408 0
WIRE 880 48 880 0
WIRE 1008 48 880 48
WIRE 1120 48 1056 48
WIRE 1152 48 1120 48
WIRE 1296 48 1296 0
WIRE 1248 64 1248 0
WIRE 880 80 880 48
WIRE 1056 80 1056 48
WIRE 1008 96 1008 48
WIRE 1248 144 1248 112
WIRE 1296 144 1296 128
WIRE 880 176 880 160
WIRE 1008 176 1008 144
WIRE 1056 176 1056 160
WIRE 1424 416 1408 416
WIRE 1536 416 1504 416
WIRE 1680 416 1664 416
WIRE 1792 416 1760 416
WIRE 2064 416 2048 416
WIRE 2176 416 2144 416
WIRE 2320 416 2304 416
WIRE 2432 416 2400 416
WIRE 1600 528 1152 528
WIRE 1664 528 1600 528
WIRE 1904 528 1744 528
WIRE 1936 528 1904 528
WIRE 2304 528 2144 528
WIRE 2336 528 2304 528
WIRE 1744 544 1744 528
WIRE 2144 544 2144 528
WIRE 1152 560 1152 528
WIRE 1024 592 912 592
WIRE 1056 592 1024 592
WIRE 1088 592 1056 592
WIRE 2560 624 2496 624
WIRE 2608 624 2560 624
WIRE 1600 640 1392 640
WIRE 1664 640 1600 640
WIRE 1744 640 1744 624
WIRE 2144 640 2144 624
WIRE 1152 656 1152 640
WIRE 1392 672 1392 640
WIRE 2496 672 2496 624
WIRE 1264 720 1088 720
WIRE 1328 720 1264 720
WIRE 624 736 544 736
WIRE 816 736 768 736
WIRE 912 736 912 592
WIRE 912 736 816 736
WIRE 544 768 544 736
WIRE 1392 768 1392 752
WIRE 2496 768 2496 752
WIRE 816 800 768 800
WIRE 848 800 816 800
WIRE 1600 848 1392 848
WIRE 1664 848 1600 848
WIRE 1904 848 1744 848
WIRE 1936 848 1904 848
WIRE 2304 848 2144 848
WIRE 2336 848 2304 848
WIRE 544 864 544 848
WIRE 1392 864 1392 848
WIRE 1744 864 1744 848
WIRE 2144 864 2144 848
WIRE 1024 896 1024 592
WIRE 1328 896 1024 896
WIRE 1344 896 1328 896
WIRE 1744 960 1744 944
WIRE 2144 960 2144 944
WIRE 1600 976 1200 976
WIRE 1664 976 1600 976
WIRE 1200 1008 1200 976
WIRE 544 1024 544 992
WIRE 1072 1040 960 1040
WIRE 1088 1040 1088 720
WIRE 1088 1040 1072 1040
WIRE 1136 1040 1088 1040
WIRE 960 1088 960 1040
WIRE 912 1104 912 736
WIRE 1200 1104 1200 1088
WIRE 544 1120 544 1104
WIRE 912 1184 912 1152
WIRE 960 1184 960 1168
FLAG 816 800 cos
FLAG 544 864 0
FLAG 1152 656 0
FLAG 1600 528 X1
FLAG 1664 416 0
FLAG 1792 416 sin
FLAG 816 736 x
FLAG 912 1184 0
FLAG 960 1184 0
FLAG 1072 1040 Xh
FLAG 1408 416 0
FLAG 1536 416 cos
FLAG 1056 592 x
FLAG 1392 944 0
FLAG 1600 848 X2
FLAG 1392 768 0
FLAG 1600 640 Xh2
FLAG 1200 1104 0
FLAG 1600 976 Xh1
FLAG 1328 896 x
FLAG 1264 720 Xh
FLAG 1744 640 0
FLAG 1744 960 0
FLAG 1904 528 I
FLAG 1904 848 Q
FLAG 1008 176 0
FLAG 1056 176 0
FLAG 880 176 0
FLAG 1120 48 x_o2
FLAG 1248 144 0
FLAG 1296 144 0
FLAG 1408 0 x_o1
FLAG 544 1120 0
FLAG 544 992 fx
FLAG 2144 640 0
FLAG 2144 960 0
FLAG 2304 528 I_IF
FLAG 2304 848 Q_IF
FLAG 2304 416 0
FLAG 2432 416 sinIF
FLAG 2048 416 0
FLAG 2176 416 cosIF
FLAG 2496 768 0
FLAG 2560 624 ant
SYMBOL SpecialFunctions\\modulate2 624 736 R0
WINDOW 3 -33 122 Left 2
SYMATTR Value space={Fmin} mark={Fmax}
SYMATTR InstName A1
SYMBOL voltage 544 752 R0
WINDOW 123 0 0 Left 2
WINDOW 39 0 0 Left 2
WINDOW 3 -53 152 Left 2
SYMATTR Value PULSE(0 1 0 {tb})
SYMATTR InstName V1
SYMBOL bv 1152 544 R0
WINDOW 3 51 59 Left 2
SYMATTR Value V=V(x)*V(cos)
SYMATTR InstName B1
SYMBOL voltage 1776 416 R90
WINDOW 3 -60 -37 VRight 2
WINDOW 123 0 0 Left 2
WINDOW 39 0 0 Left 2
SYMATTR Value SINE(0 1 {2*pi*F0})
SYMATTR InstName V2
SYMBOL e 960 1072 R0
WINDOW 3 -153 145 Left 2
SYMATTR Value laplace=(1-s/{2*pi*f0h})/(1+s/{2*pi*f0h})
SYMATTR InstName E1
SYMBOL voltage 1520 416 R90
WINDOW 3 -60 -57 VRight 2
WINDOW 123 0 0 Left 2
WINDOW 39 0 0 Left 2
SYMATTR Value SINE(0 1 {2*pi*F0} 0 0 270)
SYMATTR InstName V3
SYMBOL bv 1392 848 R0
WINDOW 3 50 56 Left 2
SYMATTR Value V=V(x)*V(sin)
SYMATTR InstName B2
SYMBOL bv 1392 656 R0
WINDOW 3 41 59 Left 2
SYMATTR Value V=V(Xh)*V(sin)
SYMATTR InstName B3
SYMBOL bv 1200 992 R0
WINDOW 3 49 51 Left 2
SYMATTR Value V=V(Xh)*V(cos)
SYMATTR InstName B4
SYMBOL bv 1744 528 R0
WINDOW 3 41 59 Left 2
SYMATTR Value V=V(X1)+V(Xh2)
SYMATTR InstName B5
SYMBOL bv 1744 848 R0
WINDOW 3 41 59 Left 2
SYMATTR Value V=V(Xh1)-V(X2)
SYMATTR InstName B6
SYMBOL e 1056 64 R0
WINDOW 3 -213 161 Left 2
SYMATTR Value laplace=(1-(2*eps*s)/w0h+s**2/w0h**2)/(1+(2*eps*s)/w0h+s**2/w0h**2)
SYMATTR InstName E2
SYMBOL voltage 880 64 R0
WINDOW 123 24 44 Left 2
WINDOW 39 0 0 Left 2
SYMATTR Value2 AC 1
SYMATTR InstName V4
SYMATTR Value ""
SYMBOL e 1296 32 R0
WINDOW 3 -153 145 Left 2
SYMATTR Value laplace=(1-s/{2*pi*f0h})/(1+s/{2*pi*f0h})
SYMATTR InstName E3
SYMBOL bv 544 1008 R0
WINDOW 3 51 59 Left 2
SYMATTR Value V=((fmax-fmin)/tb)*time+fmin
SYMATTR InstName B7
SYMBOL bv 2144 528 R0
WINDOW 3 41 59 Left 2
SYMATTR Value V=V(I)*V(cosIF)
SYMATTR InstName B8
SYMBOL bv 2144 848 R0
WINDOW 3 41 59 Left 2
SYMATTR Value V=V(Q)*V(sinIF)
SYMATTR InstName B9
SYMBOL voltage 2416 416 R90
WINDOW 3 -60 -37 VRight 2
WINDOW 123 0 0 Left 2
WINDOW 39 0 0 Left 2
SYMATTR Value SINE(0 1 {2*pi*IF})
SYMATTR InstName V5
SYMBOL voltage 2160 416 R90
WINDOW 3 -60 -57 VRight 2
WINDOW 123 0 0 Left 2
WINDOW 39 0 0 Left 2
SYMATTR Value SINE(0 1 {2*pi*IF} 0 0 270)
SYMATTR InstName V6
SYMBOL bv 2496 656 R0
WINDOW 3 41 59 Left 2
SYMATTR Value V=V(I_IF)+V(Q_IF)
SYMATTR InstName B10
TEXT 624 392 Left 2 !.param Bw=5k\n.param fc=10k\n.param Fmin={fc-Bw/2}\n.param Fmax={fc+Bw/2}\n.param F0={500k/(2*pi)}\n.param tb = 5m
TEXT 624 600 Left 2 !.tran 0 {tb} 0
TEXT 624 624 Left 2 !.options plotwinsize=0
TEXT 904 392 Left 2 !;.param f0h = {fc*f0h_fact}\n.param f0h = 16.25k\n.param f0h_fact = 1\n.param w0h = {2*pi*f0h}\n.param eps=0.1
TEXT 824 -208 Left 2 ;.step param FREQ list 1 2 3 4\n.param f0h=table (FREQ,1,Fmin,2,Fc,3,(Fc+0.25*Bw),4,Fmax)
TEXT 904 352 Left 2 ;.step param eps list 0.1 1 2 5
TEXT 904 320 Left 2 ;.step param f0h list 12.5k 13.75k 15k 16.25k
TEXT 1488 -264 Left 2 ;.step param f0h list 7.5k 10k 11.25k 12.5k\n.param Bw=5k\n.param fc=10k\n.param Fmin={fc-Bw/2}\n.param Fmax={fc+Bw/2}\n.param F0={500k/(2*pi)}\n.param tb = 25m
TEXT 2184 112 Left 2 !.param IF = 500k
