Version 4
SHEET 1 1172 680
WIRE -160 128 -224 128
WIRE -80 128 -160 128
WIRE 176 144 160 144
WIRE 240 144 176 144
WIRE 320 144 240 144
WIRE -224 192 -224 128
WIRE -80 192 -80 128
WIRE 176 208 176 144
WIRE 320 208 320 144
WIRE -80 304 -80 272
WIRE 320 320 320 288
WIRE -224 352 -224 272
WIRE -144 352 -224 352
WIRE 176 368 176 288
WIRE 256 368 176 368
WIRE -224 416 -224 352
WIRE -80 416 -80 400
WIRE 176 432 176 368
WIRE 320 432 320 416
WIRE -224 528 -224 496
WIRE -80 528 -80 496
WIRE 176 544 176 512
WIRE 320 544 320 512
FLAG 320 544 0
FLAG 176 544 0
FLAG 240 144 Vplus
FLAG -80 528 0
FLAG -224 528 0
FLAG -160 128 Vplus
SYMBOL EIT_Semiconductors\\npn 256 320 R0
WINDOW 3 52 57 Left 2
WINDOW 0 52 38 Left 2
SYMATTR Value Nx {K}
SYMATTR InstName Q1
SYMBOL res 304 192 R0
SYMATTR InstName R1
SYMATTR Value 100
SYMBOL res 160 192 R0
SYMATTR InstName R2
SYMATTR Value 10k
SYMBOL res 160 416 R0
SYMATTR InstName R3
SYMATTR Value 1.51K
SYMBOL res 304 416 R0
SYMATTR InstName R4
SYMATTR Value 47
SYMBOL source-Vmarker 160 144 R0
SYMATTR InstName U1
SYMBOL EIT_Semiconductors\\npn -144 304 R0
WINDOW 3 52 57 Left 2
WINDOW 0 52 38 Left 2
SYMATTR Value Nx2
SYMATTR InstName Q2
SYMBOL res -96 176 R0
SYMATTR InstName R5
SYMATTR Value 100
SYMBOL res -240 176 R0
SYMATTR InstName R6
SYMATTR Value 10k
SYMBOL res -240 400 R0
SYMATTR InstName R7
SYMATTR Value 1.51K
SYMBOL res -96 400 R0
SYMATTR InstName R8
SYMATTR Value 47
TEXT 48 592 Left 2 ;.step param rset 10 10k 250
TEXT 46 610 Left 2 ;.tran 1m
TEXT 520 208 Left 2 !.model Nx NPN (Is={1m/exp(.6V/26m)} BF=200  Cjc=1p)\n.model Nx2 NPN (Is={10*1m/exp(.6V/26m)} BF=200  Cjc=1p)
TEXT 496 544 Left 2 !.STEP PARAM k 1 25 .1
TEXT 496 400 Left 2 !.op
TEXT -352 576 Left 2 ;.step param rset 10 10k 250
TEXT -354 594 Left 2 ;.tran 1m
TEXT 608 480 Left 2 !.temp 27 80
