Version 4
SHEET 1 1080 680
WIRE 320 112 192 112
WIRE 400 112 320 112
WIRE 528 112 400 112
WIRE 720 112 656 112
WIRE 800 112 720 112
WIRE 528 144 528 112
WIRE 656 144 656 112
WIRE 720 144 720 112
WIRE 800 160 800 112
WIRE -448 176 -480 176
WIRE -416 176 -448 176
WIRE -304 176 -352 176
WIRE -176 176 -224 176
WIRE -80 176 -176 176
WIRE 16 176 -80 176
WIRE 48 176 16 176
WIRE -480 224 -480 176
WIRE -176 224 -176 176
WIRE -80 224 -80 176
WIRE 48 224 48 176
WIRE 192 224 192 112
WIRE 320 224 320 112
WIRE 400 224 400 112
WIRE 528 272 528 224
WIRE 624 272 528 272
WIRE 656 272 656 224
WIRE 656 272 624 272
WIRE 720 272 720 224
WIRE 720 272 656 272
WIRE -480 368 -480 304
WIRE -176 368 -176 304
WIRE -80 368 -80 304
WIRE 48 368 48 304
WIRE 192 368 192 304
WIRE 320 368 320 304
WIRE 400 368 400 304
WIRE 624 368 624 272
WIRE 624 368 576 368
WIRE 672 368 624 368
WIRE 768 368 672 368
WIRE 832 368 768 368
WIRE 864 368 832 368
WIRE 976 368 928 368
WIRE 1008 368 976 368
WIRE 576 400 576 368
WIRE 672 400 672 368
WIRE 768 400 768 368
WIRE 1008 400 1008 368
WIRE 576 528 576 480
WIRE 672 528 672 480
WIRE 768 528 768 480
WIRE 1008 528 1008 480
FLAG -480 368 0
FLAG -176 368 0
FLAG -80 368 0
FLAG 48 368 0
FLAG 192 368 0
FLAG 320 368 0
FLAG 400 368 0
FLAG 576 528 0
FLAG 672 528 0
FLAG 768 528 0
FLAG 1008 528 0
FLAG 800 160 0
FLAG 976 368 out
FLAG 832 368 E2
FLAG 320 112 C1
FLAG 16 176 B1
FLAG -448 176 V1
SYMBOL source-V -480 208 R0
SYMATTR InstName V1
SYMATTR Value ac
SYMBOL cap -352 160 R90
WINDOW 0 0 32 VBottom 0
WINDOW 3 32 32 VTop 0
SYMATTR InstName C1
SYMATTR Value 10µ
SYMBOL res -192 208 R0
SYMATTR InstName R3
SYMATTR Value 100k
SYMBOL res -96 208 R0
SYMATTR InstName R2x
SYMATTR Value 44
SYMBOL res -208 160 R90
WINDOW 0 7 56 VBottom 0
WINDOW 3 25 56 VTop 0
SYMATTR InstName R1
SYMATTR Value 3.3k
SYMBOL res 32 208 R0
SYMATTR InstName Rpi1
SYMATTR Value 12k
SYMBOL res 304 208 R0
SYMATTR InstName r01
SYMATTR Value 178k
SYMBOL res 384 208 R0
SYMATTR InstName R4x
SYMATTR Value 115k
SYMBOL res 512 128 R0
SYMATTR InstName rpi2
SYMATTR Value 1.6k
SYMBOL res 704 128 R0
SYMATTR InstName r02
SYMATTR Value 24.2k
SYMBOL res 560 384 R0
WINDOW 0 -58 45 Left 0
WINDOW 3 -100 78 Left 0
SYMATTR InstName R4y
SYMATTR Value 100meg
SYMBOL res 656 384 R0
SYMATTR InstName R5
SYMATTR Value 1.5k
SYMBOL res 752 384 R0
SYMATTR InstName R2y
SYMATTR Value 100meg
SYMBOL res 992 384 R0
SYMATTR InstName RL
SYMATTR Value 1k
SYMBOL cap 864 384 R270
WINDOW 0 32 32 VTop 0
WINDOW 3 0 32 VBottom 0
SYMATTR InstName C2
SYMATTR Value 10µ
SYMBOL Function-I 192 304 R180
WINDOW 0 30 61 Left 0
WINDOW 3 -88 -111 Left 0
SYMATTR InstName Q1
SYMATTR Value I=17.3m*V(B1)
SYMBOL Function-I 656 224 R180
WINDOW 0 30 61 Left 0
WINDOW 3 -81 -71 Left 0
SYMATTR InstName Q2
SYMATTR Value I=127m*V(C1,E2)
TEXT -512 552 Left 0 !.ac oct 100 1 100k
