Version 4
SHEET 1 880 680
WIRE -32 -48 -224 -48
WIRE 128 -48 -32 -48
WIRE -224 0 -224 -48
WIRE -432 16 -496 16
WIRE -416 16 -432 16
WIRE -32 32 -32 -48
WIRE -496 64 -496 16
WIRE 128 80 128 -48
WIRE -224 96 -224 80
WIRE -160 144 -224 144
WIRE -32 144 -32 112
WIRE -32 144 -96 144
WIRE 48 144 -32 144
WIRE 80 144 48 144
WIRE -496 176 -496 144
WIRE -32 192 -32 144
WIRE -432 208 -496 208
WIRE -416 208 -432 208
WIRE -496 224 -496 208
WIRE 128 224 128 176
WIRE 128 256 128 224
WIRE 80 320 32 320
WIRE -496 336 -496 304
WIRE -224 336 -224 144
WIRE 32 368 32 320
WIRE 128 384 128 352
WIRE 128 416 128 384
WIRE -224 480 -224 416
WIRE -32 528 -32 272
WIRE 128 528 128 496
FLAG 32 368 0
FLAG 128 528 0
FLAG -32 528 0
FLAG -224 480 0
FLAG -224 96 0
FLAG 128 224 s1
FLAG 48 144 g1
FLAG 128 384 s2
FLAG -496 336 0
FLAG -496 176 0
FLAG -432 208 v2
FLAG -432 16 v3
SYMBOL source-V -224 -16 R0
WINDOW 123 0 0 Left 0
WINDOW 39 0 0 Left 0
SYMATTR InstName V1
SYMATTR Value 8
SYMBOL source-V -496 208 R0
WINDOW 123 0 0 Left 0
WINDOW 39 0 0 Left 0
SYMATTR InstName V2
SYMATTR Value SINE(0 1 1k 3m)
SYMBOL res 112 400 R0
SYMATTR InstName R1
SYMATTR Value 500
SYMBOL EIT_Semiconductors\\njf 80 256 R0
SYMATTR InstName J2
SYMATTR Value NJFx
SYMBOL EIT_Semiconductors\\njf 80 80 R0
SYMATTR InstName J1
SYMATTR Value NJFx
SYMBOL res -48 16 R0
SYMATTR InstName R2
SYMATTR Value 1.3188meg
SYMBOL res -48 176 R0
SYMATTR InstName R3
SYMATTR Value 1meg
SYMBOL cap -96 128 R90
WINDOW 0 0 32 VBottom 0
WINDOW 3 32 32 VTop 0
SYMATTR InstName C1
SYMATTR Value 10µ
SYMBOL Function-V -224 320 R0
SYMATTR InstName B1
SYMATTR Value V=V(v2)*V(v3)
SYMBOL source-V -496 48 R0
WINDOW 123 0 0 Left 0
WINDOW 39 0 0 Left 0
SYMATTR InstName V3
SYMATTR Value PULSE(0 5 3m 10m)
TEXT -256 -112 Left 0 !.model njfx njf (VT0=-2.5 beta=1.12m)
TEXT -258 552 Left 0 !.tran 15m
