Version 4
SHEET 1 880 900
WIRE -80 0 -288 0
WIRE 64 0 -80 0
WIRE 304 0 64 0
WIRE 480 0 304 0
WIRE -80 64 -80 0
WIRE -288 112 -288 0
WIRE 64 112 64 0
WIRE 480 112 480 0
WIRE -80 192 -80 144
WIRE -80 192 -96 192
WIRE -16 192 -80 192
WIRE 16 192 -16 192
WIRE 400 192 256 192
WIRE 432 192 400 192
WIRE 256 224 256 192
WIRE -288 256 -288 192
WIRE -80 256 -80 192
WIRE 256 368 256 304
WIRE -80 384 -80 336
WIRE 64 384 64 208
WIRE 480 384 480 208
WIRE 48 720 -64 720
WIRE 48 768 48 720
WIRE -64 800 -64 720
WIRE 48 864 48 848
FLAG -80 384 0
FLAG 64 384 0
FLAG -288 256 0
FLAG 480 384 0
FLAG 256 368 0
FLAG 400 192 g2
FLAG -16 192 g1
FLAG -64 880 0
FLAG 48 864 0
FLAG 304 0 Drain
SYMBOL EIT_Semiconductors\\nmos 16 112 R0
SYMATTR InstName M1
SYMATTR Value NMOSx
SYMBOL res -96 48 R0
SYMATTR InstName R1
SYMATTR Value 1k
SYMBOL res -96 240 R0
SYMATTR InstName R2
SYMATTR Value 100k
SYMBOL source-V -288 96 R0
WINDOW 123 0 0 Left 0
WINDOW 39 0 0 Left 0
SYMATTR InstName V1
SYMATTR Value {V0}
SYMBOL EIT_Semiconductors\\nmos 432 112 R0
SYMATTR InstName M2
SYMATTR Value NMOSx
SYMBOL source-V 256 208 R0
WINDOW 123 0 0 Left 0
WINDOW 39 0 0 Left 0
SYMATTR InstName V2
SYMATTR Value {Ugs}
SYMBOL res 32 752 R0
SYMATTR InstName R3
SYMATTR Value 100
SYMBOL Function-I -64 800 R0
WINDOW 3 -185 44 Left 0
SYMATTR Value I={K*V(drain)**2}
SYMATTR InstName Triode
TEXT -296 464 Left 0 !.model NMOSx NMOS (KP={2*K} VT0={Vp})
TEXT -296 496 Left 0 !.param K={Idss/Vp**2}
TEXT -296 528 Left 0 !.param Idss=8m
TEXT -296 560 Left 0 !.param Vp=2
TEXT -296 592 Left 0 !.param V0=10
TEXT -304 368 Left 0 !.dc v1 0 {Udmax} 10m
TEXT -296 624 Left 0 !.param Ugs=10
TEXT -96 632 Left 0 !.step param Ugs 2 5 0.5
TEXT -296 696 Left 0 !.param Id={K**2}
TEXT -296 664 Left 0 !.param Udmax=5
