Version 4
SHEET 1 880 680
WIRE -32 -288 -48 -288
WIRE 288 -288 -32 -288
WIRE -32 -240 -32 -288
WIRE -208 -224 -384 -224
WIRE -208 -192 -208 -224
WIRE -32 -112 -32 -160
WIRE -208 -64 -208 -112
WIRE -96 -64 -208 -64
WIRE -208 -48 -208 -64
WIRE -32 16 -32 -16
WIRE -208 80 -208 32
WIRE 160 80 -32 80
WIRE 288 80 288 -288
WIRE 288 80 160 80
WIRE -32 112 -32 80
WIRE 288 112 288 80
WIRE -384 128 -384 -224
WIRE -208 128 -384 128
WIRE -208 144 -208 128
WIRE 288 224 288 192
WIRE -32 240 -32 192
WIRE -384 256 -384 128
WIRE -208 256 -208 224
WIRE -112 256 -208 256
WIRE 160 272 160 80
WIRE -208 288 -208 256
WIRE -112 336 -112 304
WIRE -112 352 -112 336
WIRE -32 352 -32 320
WIRE -384 368 -384 336
WIRE 160 368 160 352
WIRE -208 416 -208 368
FLAG -32 16 0
FLAG -32 352 0
FLAG 288 224 0
FLAG -384 368 0
FLAG -208 416 0
FLAG -208 80 0
FLAG -112 352 0
FLAG 160 368 0
SYMBOL EIT_Semiconductors\\npn -96 -112 R0
SYMATTR InstName Q1
SYMATTR Value NPNx
SYMBOL res -48 96 R0
SYMATTR InstName R1
SYMATTR Value 1k
SYMBOL res -48 -256 R0
SYMATTR InstName R2
SYMATTR Value 1k
SYMBOL source-V 288 96 R0
SYMATTR InstName V1
SYMATTR Value 10
SYMBOL source-V -384 240 R0
SYMATTR InstName V2
SYMATTR Value 1
SYMBOL res -192 240 R180
WINDOW 0 36 76 Left 0
WINDOW 3 36 40 Left 0
SYMATTR InstName R3
SYMATTR Value 100k
SYMBOL res -192 -96 R180
WINDOW 0 36 76 Left 0
WINDOW 3 36 40 Left 0
SYMATTR InstName R5
SYMATTR Value 100k
SYMBOL Function-I -32 320 M180
WINDOW 0 30 61 Left 0
WINDOW 3 29 22 Left 0
SYMATTR InstName B1
SYMATTR Value I=BF*(-I(R3))
SYMBOL source-V -112 240 R0
SYMATTR InstName V3
SYMATTR Value 0.7
TEXT -112 488 Left 0 !.model npnx NPN(BF={BF} IS=1.e-14)
TEXT -416 488 Left 0 !.dc V2 0 10 10m
TEXT -96 528 Left 0 !.param BF=200
