Version 4
SHEET 1 1120 680
WIRE -112 -800 -128 -800
WIRE -304 -784 -336 -784
WIRE -480 -768 -512 -768
WIRE -336 -768 -336 -784
WIRE -112 -768 -128 -768
WIRE -512 -752 -512 -768
WIRE -592 -736 -608 -736
WIRE -592 -688 -608 -688
WIRE -336 -672 -336 -688
WIRE -384 -528 -736 -528
WIRE -144 -528 -384 -528
WIRE -384 -512 -384 -528
WIRE -608 -416 -704 -416
WIRE -480 -416 -528 -416
WIRE -384 -416 -384 -432
WIRE -384 -416 -480 -416
WIRE -288 -416 -384 -416
WIRE -1312 -400 -1376 -400
WIRE -1248 -400 -1312 -400
WIRE -1136 -400 -1248 -400
WIRE -704 -384 -704 -416
WIRE -480 -384 -480 -416
WIRE -288 -384 -288 -416
WIRE -144 -384 -144 -528
WIRE -1248 -368 -1248 -400
WIRE -960 -336 -960 -352
WIRE -416 -336 -640 -336
WIRE -384 -336 -416 -336
WIRE -352 -336 -384 -336
WIRE -208 -336 -352 -336
WIRE -1248 -240 -1248 -288
WIRE -1248 -240 -1328 -240
WIRE -1168 -240 -1248 -240
WIRE -704 -240 -704 -288
WIRE -704 -240 -784 -240
WIRE -624 -240 -704 -240
WIRE -1376 -224 -1376 -400
WIRE -480 -224 -480 -288
WIRE -384 -224 -384 -336
WIRE -384 -224 -480 -224
WIRE -144 -224 -144 -288
WIRE -80 -224 -144 -224
WIRE -64 -224 -80 -224
WIRE -48 -224 -64 -224
WIRE -1328 -208 -1328 -240
WIRE -1168 -208 -1168 -240
WIRE -784 -208 -784 -240
WIRE -624 -208 -624 -240
WIRE -144 -192 -144 -224
WIRE -1376 -176 -1376 -192
WIRE -1376 -176 -1392 -176
WIRE -1120 -176 -1120 -192
WIRE -1120 -176 -1136 -176
WIRE -1104 -176 -1120 -176
WIRE -960 -176 -976 -176
WIRE -832 -176 -832 -192
WIRE -832 -176 -864 -176
WIRE -576 -176 -576 -192
WIRE -576 -176 -592 -176
WIRE -544 -176 -576 -176
WIRE -368 -144 -384 -144
WIRE -288 -144 -288 -288
WIRE -288 -144 -304 -144
WIRE -208 -144 -288 -144
WIRE -80 -128 -80 -224
WIRE -288 -96 -288 -144
WIRE -624 -48 -624 -112
WIRE -384 -48 -384 -144
WIRE -384 -48 -624 -48
WIRE -352 -48 -384 -48
WIRE -1328 -32 -1328 -112
WIRE -1248 -32 -1328 -32
WIRE -784 -32 -784 -112
WIRE -704 -32 -784 -32
WIRE -80 -32 -80 -48
WIRE -480 -16 -480 -224
WIRE -1328 0 -1328 -32
WIRE -1168 0 -1168 -112
WIRE -784 0 -784 -32
WIRE -624 0 -624 -48
WIRE -1248 48 -1248 -32
WIRE -1248 48 -1264 48
WIRE -1232 48 -1248 48
WIRE -704 48 -704 -32
WIRE -704 48 -720 48
WIRE -688 48 -704 48
WIRE -1328 128 -1328 96
WIRE -1168 128 -1168 96
WIRE -1168 128 -1328 128
WIRE -784 128 -784 96
WIRE -784 128 -816 128
WIRE -624 128 -624 96
WIRE -624 128 -784 128
WIRE -480 128 -480 64
WIRE -480 128 -624 128
WIRE -288 128 -288 0
WIRE -288 128 -480 128
WIRE -144 128 -144 -96
WIRE -144 128 -288 128
FLAG -736 -528 Vcc
IOPIN -736 -528 In
FLAG -816 128 Vee
IOPIN -816 128 In
FLAG -544 -176 in+
IOPIN -544 -176 In
FLAG -864 -176 in-
IOPIN -864 -176 In
FLAG -608 -736 in+
IOPIN -608 -736 In
FLAG -608 -688 in-
IOPIN -608 -688 In
FLAG -512 -672 0
FLAG -480 -768 in+1
IOPIN -480 -768 In
FLAG -112 -800 Vcc
IOPIN -112 -800 In
FLAG -112 -768 Vee
IOPIN -112 -768 In
FLAG -336 -672 0
FLAG -1312 -400 Vcc
IOPIN -1312 -400 In
FLAG -1328 128 Vee
IOPIN -1328 128 In
FLAG -48 -224 out
IOPIN -48 -224 In
FLAG -976 -176 out
IOPIN -976 -176 In
FLAG -960 -176 in-
IOPIN -960 -176 In
FLAG -960 -432 in+
IOPIN -960 -432 In
FLAG -960 -336 0
FLAG -80 -32 0
DATAFLAG -720 -288 "abs(round(1e6*Ic(Q9))*1e-6)"
DATAFLAG -432 -16 "round(1e6*I(R2))*1e-6"
DATAFLAG -256 -288 "round(1e6*-Ic(Q11))*1e-6"
DATAFLAG -112 -288 "round(1e6*-Ic(Q12))*1e-6"
DATAFLAG -512 -288 "round(1e6*-Ic(Q10))*1e-6"
DATAFLAG -64 -224 "round(1e3*$)*1e-3"
SYMBOL EIT_Semiconductors\\pnp -640 -288 R180
SYMATTR InstName Q9
SYMATTR Value Qpx
SYMBOL res -496 -32 R0
SYMATTR InstName R2
SYMATTR Value {R2}
SYMBOL cap -304 -128 M270
WINDOW 0 32 32 VTop 2
WINDOW 3 0 32 VBottom 2
SYMATTR InstName Cco
SYMATTR Value 15p
SYMBOL MDB_sym\\isoR0 -576 -208 R180
WINDOW 0 9 10 Invisible 2
SYMATTR InstName U1
SYMBOL MDB_sym\\isoR0 -832 -208 R180
WINDOW 0 9 10 Invisible 2
SYMATTR InstName U2
SYMBOL EIT_Semiconductors\\npn -720 0 M0
SYMATTR InstName Q3
SYMATTR Value Qnx
SYMBOL EIT_Semiconductors\\npn -688 0 R0
SYMATTR InstName Q4
SYMATTR Value Qnx
SYMBOL EIT_Semiconductors\\pnp -416 -288 R180
SYMATTR InstName Q10
SYMATTR Value Qpx
SYMBOL EIT_Semiconductors\\pnp -352 -288 M180
SYMATTR InstName Q11
SYMATTR Value Qpx
SYMBOL crtl-V-V -512 -768 R0
WINDOW 0 -32 11 Left 2
SYMATTR InstName E1
SYMATTR Value 1
SYMBOL EIT_Semiconductors\\npn -352 -96 R0
SYMATTR InstName Q6
SYMATTR Value Qnx
SYMBOL MDB_sym\\source-Vmarker -128 -800 R0
SYMATTR Value V={VCC}
SYMATTR InstName U3
SYMBOL MDB_sym\\source-Vmarker -128 -768 R0
SYMATTR Value V={VEE}
SYMATTR InstName U4
SYMBOL EIT_Semiconductors\\pnp -208 -288 M180
SYMATTR InstName Q12
SYMATTR Value Qpx
SYMBOL res -512 -432 R90
WINDOW 0 7 56 VBottom 2
WINDOW 3 25 56 VTop 2
SYMATTR InstName R1
SYMATTR Value {R1}
SYMBOL res -400 -528 R0
SYMATTR InstName R3
SYMATTR Value {R3}
SYMBOL EIT_Semiconductors\\pjf -832 -112 M180
SYMATTR InstName J1
SYMATTR Value PJx
SYMBOL EIT_Semiconductors\\pjf -576 -112 R180
SYMATTR InstName J2
SYMATTR Value PJx
SYMBOL MDB_sym\\isoR0 -1120 -208 R180
WINDOW 0 9 10 Invisible 2
SYMATTR InstName U5
SYMATTR Value R=10meg
SYMBOL EIT_Semiconductors\\npn -1264 0 M0
SYMATTR InstName Q1
SYMATTR Value Qnx
SYMBOL EIT_Semiconductors\\npn -1232 0 R0
SYMATTR InstName Q2
SYMATTR Value Qnx
SYMBOL EIT_Semiconductors\\pjf -1376 -112 M180
SYMATTR InstName J3
SYMATTR Value PJx
SYMBOL EIT_Semiconductors\\pjf -1120 -112 R180
SYMATTR InstName J4
SYMATTR Value PJx
SYMBOL MDB_sym\\source-I -1248 -288 R180
WINDOW 0 29 73 Left 2
WINDOW 3 29 17 Left 2
WINDOW 123 0 0 Left 2
WINDOW 39 0 0 Left 2
SYMATTR InstName I1
SYMATTR Value {I0}
SYMBOL MDB_sym\\isoR -1376 -208 R0
SYMATTR InstName R4
SYMATTR Value 1kg
SYMBOL EIT_Semiconductors\\npn -208 -192 R0
SYMATTR InstName Q5
SYMATTR Value Qnx {m}
SYMBOL MDB_sym\\source-V -960 -448 R0
WINDOW 123 0 0 Left 2
WINDOW 39 0 0 Left 2
SYMATTR InstName V1
SYMATTR Value 0
SYMBOL res -96 -144 R0
SYMATTR InstName R5
SYMATTR Value 300
TEXT -664 -912 Left 2 !.model Qnx npn (Is={I0/exp(Vbe0/26m)} Bf={beta_n} Vaf={1*Vap})\n.model Qpx pnp (Is={I0/exp(Veb0/26m)} Bf={beta_p} Vaf={1*Van})\n.model pjx pjf(beta={Kj} VT0={-Vp})
TEXT -1000 -920 Left 2 !.param ua741=1\n+ I0 = 2.5mA\n+ Vcc = 5V\n+ Vee = -5V\n+ beta_n = 200  beta_p = 200\n+ Vbe0 = 0.6V  Veb0 = 0.6V\n+ Vap = 80V  Van = 80V\n+ Vce_sat = 0.1V\n+ Vp = +2V\n+ Idss = 3mA\n+ lambda = .015\n+ kj = {sqrt(Idss/(Vp)**2)}\n+ R1 =596\n+ R2 = 8.95k\n+ R3 = 25.62
TEXT -768 -264 Left 2 ;100uA
TEXT -280 -264 Left 2 ;1mA
TEXT -136 -264 Left 2 ;8mA
TEXT -872 -1072 Left 2 ;Der OP wird mit VPlus = +5V und VMinus = -5V betrieben. Die Widerstände sind \nso dimensioniert, dass sich ICQ9 = 100uA, ICQ11 = 1mA und ICQ12 = 8mA einstellt.\nVereinfachen Sie die Berechnungen zur Verstärkung (B.7 - B.10), indem Sie für \ndie Ausgangswiderstände der Stromquellen rout = r0 annehmen. CComp soll \nfür die Berechnungen der Verstärkungen (B.7-B.10) nicht berücksichtigt werden
TEXT -72 -640 Left 2 !.op
TEXT -932 200 Left 2 ;.tran 10m
TEXT -440 -608 Left 2 ;.step param I0 10u 2m 25u
TEXT -640 200 Left 2 !.dc V1 -3 3 .001
TEXT -296 200 Left 2 ;.step param m 0.4 10 .005
