Version 4
SHEET 1 1308 680
WIRE -560 -1200 -560 -1232
WIRE -560 -1104 -560 -1120
WIRE -464 -976 -496 -976
WIRE -432 -976 -464 -976
WIRE -288 -976 -352 -976
WIRE -256 -976 -288 -976
WIRE -240 -976 -256 -976
WIRE -128 -976 -176 -976
WIRE -80 -976 -128 -976
WIRE -16 -976 -32 -976
WIRE 0 -976 -16 -976
WIRE 48 -976 0 -976
WIRE -464 -960 -464 -976
WIRE -448 -960 -464 -960
WIRE -128 -960 -128 -976
WIRE -288 -928 -288 -976
WIRE 48 -928 48 -944
WIRE 0 -912 0 -976
WIRE -304 -896 -352 -896
WIRE -352 -880 -352 -896
WIRE -352 -880 -368 -880
WIRE -352 -864 -352 -880
WIRE -128 -864 -128 -880
WIRE -128 -864 -144 -864
WIRE -128 -848 -128 -864
WIRE -288 -800 -288 -880
WIRE -128 -768 -128 -784
WIRE 0 -768 0 -832
WIRE -64 -512 -128 -512
WIRE -128 -480 -128 -512
WIRE -128 -368 -128 -400
FLAG -288 -800 0
FLAG -464 -976 Ve
FLAG -128 -768 0
FLAG -368 -880 fet
FLAG -288 -976 s
FLAG -128 -976 A
FLAG 0 -768 0
FLAG -144 -864 ca
FLAG -352 -800 0
FLAG 48 -928 0
FLAG -560 -1104 0
FLAG -560 -1232 Ve
FLAG -128 -368 0
DATAFLAG -464 -960 ""
DATAFLAG -16 -976 "round(100*$)/100"
DATAFLAG -256 -976 "round(100*$)/100"
SYMBOL schottky -240 -960 R270
WINDOW 0 32 32 VTop 2
WINDOW 3 0 32 VBottom 2
SYMATTR InstName D1
SYMATTR Value Dx
SYMATTR Description Diode
SYMATTR Type diode
SYMBOL ind -448 -960 R270
WINDOW 0 30 56 VTop 2
WINDOW 3 6 56 VBottom 2
SYMATTR InstName L1
SYMATTR Value {L1}
SYMATTR SpiceLine Rser=1n
SYMBOL cap -144 -848 R0
SYMATTR InstName C1
SYMATTR Value {CA}
SYMBOL source-I 0 -832 M180
WINDOW 0 29 73 Left 2
WINDOW 3 29 17 Left 2
WINDOW 123 0 0 Left 2
WINDOW 39 29 47 Left 2
SYMATTR InstName IA
SYMATTR Value {Ia}
SYMATTR SpiceLine load
SYMBOL res -144 -976 R0
SYMATTR InstName R1
SYMATTR Value {Rs}
SYMBOL MDB_sym\\jumper -48 -1040 R0
WINDOW 0 -7 50 Invisible 2
SYMATTR InstName J1
SYMBOL source-V -352 -896 R0
WINDOW 3 -219 150 Left 2
WINDOW 123 0 0 Left 2
WINDOW 39 0 0 Left 2
WINDOW 0 -47 91 Left 2
SYMATTR Value PULSE(-1 1 0 1n 1n {pw*T} {T})
SYMATTR InstName V1
SYMBOL MDB_sym\\isoR 48 -960 R0
SYMATTR InstName R2
SYMBOL MDB_sym\\swMDBsingle -304 -912 R0
SYMATTR InstName U2
SYMATTR Value2 Ron=1m  Roff=100meg  Lser=0  Vser=.0
SYMBOL source-V -560 -1216 R0
WINDOW 3 -48 115 Left 2
WINDOW 123 0 0 Left 2
WINDOW 39 0 0 Left 2
WINDOW 0 -47 91 Left 2
SYMATTR Value {Ve}
SYMATTR InstName V2
SYMBOL bv -128 -496 R0
SYMATTR InstName B1
SYMATTR Value V=-Icmax/Ca*(TIME*TIME/(2*(10u))-TIME )
TEXT -592 -864 Left 2 ;_Boostconverter\n_........................
TEXT 688 -1536 Left 2 !; ---------------------------------------------------\n; Tastverhältniss\n; ---------------------------------------------------\n.MEAS TRAN t0 FIND time*1e6 WHEN I(L1)=I(I1) cross=1 TD=1u\n.MEAS TRAN t1 FIND time*1e6 WHEN I(L1)=I(I1) cross=2 TD=1u\n.MEAS TRAN t2 FIND time*1e6 WHEN I(L1)=I(I1) cross=3 TD=1u\n.MEAS TRAN trise FIND time WHEN I(L1)=I(I1) rise=1 TD=1u\n.MEAS TRAN tfall FIND time WHEN I(L1)=I(I1) fall=1 TD=1u\n \n.MEAS TRAN T PARAM round(t2-t0)\n.MEAS TRAN ton PARAM round(t1-t0)\n \n; ---------------------------------------------------\n; Rippelspannung berechnen\n; ---------------------------------------------------\n.MEAS TRAN area_ICa INTEG I(CA)\n+ TRIG I(CA)=0 RISE=1\n+ TARG I(CA)=0 FALL=1\n \n.MEAS TRAN vrip PARAM area_ICa/CA\n \n; ---------------------------------------------------\n; Rippelspannung direkt messen\n; ---------------------------------------------------\n.MEAS TRAN vpp pp V(A) \n+ TRIG time=0\n+ TARG time=300u\n \n; ---------------------------------------------------\n; ESR\n; ---------------------------------------------------\n.MEAS TRAN ILmax MAX I(L1) TD=10u\n.MEAS TRAN ILmin MIN I(L1) TD=10u\n.MEAS TRAN p1 FIND V(a,ca) WHEN I(L1)=ILmin fall=last\n.MEAS TRAN p2 FIND V(a,ca) WHEN I(L1)=ILmax rise=last\n.MEAS TRAN dVa PARAM abs(p2-p1)\n.MEAS TRAN dIL PARAM abs(ILmax-ILmin)\n.MEAS TRAN Rser PARAM dVa/dIL\n \n; ---------------------------------------------------\n; Model defines\n; ---------------------------------------------------\n.model swL SW(Ron=1m Roff=100Meg Vt=0 Vh=-.5 )\n.model swT SW(Ron=1m Roff=100meg Vt=0 Vh=-.5 )\n.model Dx D (Vfwd = {VD0} Ron = 1 Roff 100meg)
TEXT 144 -1456 Left 2 ;; _Boostconverter\n; _........................\n; Spulen-Energie \n; EL = 0.5*L1*IL^2\n \n; Verlauf des Spulenstromes\n; ----------------------------------------\n; IL_on = Ve/L1*time+IL01\n; IL_off = -(Va+Vd0)/L1*(t2-time)+IL02\n \n; Wenn eine stationäre Vca gefordert ist,\n; muss mittlerer Kondensatorstrom _IL=0A\n; gelten da sich die Vca sonst ändern würde\n \n; Tastverhältniss p\n; ----------------------------------------\n; p = t1/T  \n; Tastverhältniss p ergibt sich aus der dem\n; Verhältniss der on-zeit t1 und der Perioden-\n; dauer T\n \n; Relative Stromänderung \n; ----------------------------------------\n.param d_IL_on = {Ve/L1*t1}\n; für 0<t<t1\n.param d_IL_off = {-(Va+Vd0)/L1*(t2-t1)}\n; für t1<t<t2 (T)\n \n; Wegen Vca=const. muss gelten:\n; ----------------------------------------\n; |d_IL_on| = |d_IL_off|\n \n; p = t1/T für t2 = T\n.param pwc = (Va+Vd0-Ve)/(Va+Vd0)\n.param Vac = (Vd0-Ve)*T/(t1-T)\n \n; Messungen\n; ----------------------------------------\n; .MEAS TRAN dtVa TIME\n; + TRIG MIN I(L1) cross=1\n; + TARG MAX I(L1) cross=1
TEXT -408 -584 Left 2 !.tran 0 {1000*T} {998*T}
TEXT -512 -1440 Left 2 !.param T = 16us \n+ pw = 0.375\n+ Va = 7.5V\n+ Ia = 1A\n+ CA = 20uF\n+ Vd0 = .5V\n+ T_load = 0\n+ Ve = 5.019V\n+ L1 = 25uH\n+ Rs = 0.2
TEXT -168 -1104 Left 2 ;.ic V(A)={Va}
TEXT -288 -1264 Left 2 ;.step param pw list .3 .1 .05 .025
TEXT -232 -1432 Left 2 !.meas tran dUcaMax max(V(ca))\n.meas tran dUcaMin min(V(ca))\n.meas tran Vr param dUcaMax-dUcaMin
TEXT 0 -344 Left 2 !.param Icmax = 1.2A
RECTANGLE Normal 80 -704 -624 -1040 2
