Version 4
SHEET 1 880 756
WIRE -816 160 -848 160
WIRE -736 160 -768 160
WIRE -656 160 -704 160
WIRE -592 160 -656 160
WIRE -512 160 -528 160
WIRE -448 160 -480 160
WIRE -368 160 -448 160
WIRE -320 160 -336 160
WIRE -288 160 -320 160
WIRE -448 192 -448 160
WIRE -656 208 -656 160
WIRE -816 240 -816 208
WIRE -656 256 -656 240
WIRE -768 272 -768 208
WIRE -144 272 -192 272
WIRE -112 272 -144 272
WIRE -448 320 -448 304
WIRE -448 336 -448 320
WIRE -176 336 -224 336
WIRE -224 352 -224 336
WIRE -768 368 -768 352
WIRE -656 368 -656 336
WIRE -448 432 -448 400
FLAG -816 240 0
FLAG -768 368 0
FLAG -448 432 0
FLAG -656 368 0
FLAG -656 160 S
FLAG -320 160 out
FLAG -448 320 Ca
FLAG -224 432 0
DATAFLAG -144 272 "$/1A"
SYMBOL MDB_sym\\source-Vmarker -848 160 R0
SYMATTR Value V={Ve}
SYMATTR InstName U1
SYMBOL MDB_sym\\swMDB -800 176 R270
SYMATTR InstName U2
SYMBOL MDB_sym\\source-V -768 256 M0
WINDOW 0 29 29 Left 2
WINDOW 3 -168 163 Left 2
WINDOW 123 0 0 Left 2
WINDOW 39 0 0 Left 2
SYMATTR InstName V1
SYMATTR Value PULSE(0 1 0 10n 10n {p*T} {T})
SYMBOL ind -672 240 R0
SYMATTR InstName L1
SYMATTR Value {L1}
SYMBOL diode -528 144 R90
WINDOW 0 0 32 VBottom 2
WINDOW 3 32 32 VTop 2
SYMATTR InstName D1
SYMATTR Value Dx
SYMBOL res -464 208 R0
SYMATTR InstName R1
SYMATTR Value {Rs}
SYMBOL cap -464 336 R0
SYMATTR InstName C1
SYMATTR Value {Ca}
SYMBOL MDB_sym\\source-Imarker -288 160 M0
SYMATTR Value I=-{Ia}
SYMATTR InstName U3
SYMBOL MDB_sym\\arrow_curr -352 160 R90
WINDOW 0 32 3 VBottom 2
SYMATTR InstName Iout
SYMBOL MDB_sym\\arrow_curr -448 208 R0
SYMATTR InstName ICa
SYMBOL MDB_sym\\arrow_curr -496 160 R90
WINDOW 0 32 3 VBottom 2
SYMATTR InstName ID1
SYMBOL MDB_sym\\arrow_curr -656 224 R0
SYMATTR InstName IL1
SYMBOL MDB_sym\\arrow_curr -720 160 M90
WINDOW 0 32 3 VBottom 2
SYMATTR InstName Is
SYMBOL MDB_sym\\source-V -224 336 M0
WINDOW 0 29 29 Left 2
WINDOW 3 -52 131 Left 2
WINDOW 123 0 0 Left 2
WINDOW 39 0 0 Left 2
SYMATTR InstName V2
SYMATTR Value SINE(0 1 {20*1/T})
SYMBOL MDB_sym\\source-Vmarker -192 272 R0
SYMATTR Value V={1/Gmin}
SYMATTR InstName U4
TEXT -1104 144 Left 2 !.param inv=1\n+ Rs = 0.1u\n+ Ca = 20uF\n+ L1 = 55uH\n+ Ve = 11V\n+ Va = -5V\n+ T = 12.5us\n+ p = {2.5us/T}\n+ Ia = 0.1A\n+ Vd0 = 0.5V
TEXT -1104 82 Left 2 !.tran 0 {500*T} {(500-2)*T}
TEXT -1096 480 Left 2 !.model Dx D(Vfwd = {Vd0} Ron = 1m Roff={1/Gmin})
