Version 4
SHEET 1 980 832
WIRE 160 128 160 80
WIRE 64 144 64 80
WIRE 64 256 64 208
WIRE 160 256 160 208
WIRE 160 256 64 256
WIRE 208 256 160 256
WIRE 256 256 208 256
WIRE 384 256 320 256
WIRE 416 256 384 256
WIRE 496 256 448 256
WIRE 640 256 592 256
WIRE 640 272 640 256
WIRE 160 288 160 256
WIRE 384 288 384 256
WIRE 496 288 496 256
WIRE 592 288 592 256
WIRE 624 288 592 288
WIRE 144 304 64 304
WIRE 64 368 64 304
WIRE 160 368 160 336
WIRE 384 384 384 352
WIRE 496 384 496 368
WIRE 640 416 640 400
WIRE 64 480 64 448
WIRE 160 480 160 448
WIRE 240 576 240 560
WIRE 64 592 64 576
FLAG 160 480 0
FLAG 160 80 0
FLAG 64 80 0
FLAG 384 384 0
FLAG 64 480 0
FLAG 64 672 0
FLAG 208 256 Vs
FLAG 640 416 0
FLAG 496 384 0
FLAG 592 256 0
FLAG 384 256 Va
FLAG 240 688 0
FLAG 240 560 0
SYMBOL ind 144 112 R0
SYMATTR InstName L1
SYMATTR Value {L1}
SYMBOL cap 48 144 R0
SYMATTR InstName C1
SYMATTR Value {Cpar}
SYMBOL MDB_sym\\swMDBsingle 144 320 M180
WINDOW 3 23 -15 Left 2
SYMATTR InstName U1
SYMATTR Value2 Ron=1m  Roff=100meg  Lser=0n  Vser=.0
SYMBOL diode 256 272 R270
WINDOW 0 32 32 VTop 2
WINDOW 3 0 32 VBottom 2
SYMATTR InstName D1
SYMATTR Value Dx
SYMBOL cap 368 288 R0
SYMATTR InstName C2
SYMATTR Value {Ca}
SYMBOL MDB_sym\\source-V 160 352 R0
WINDOW 123 0 0 Left 2
WINDOW 39 0 0 Left 2
SYMATTR InstName V1
SYMATTR Value {Ve}
SYMBOL MDB_sym\\source-V 64 352 M0
WINDOW 3 -227 175 Left 2
WINDOW 123 0 0 Left 2
WINDOW 39 0 0 Left 2
SYMATTR Value PULSE(-1 1 0 1n 1n {p*T0} {T0})
SYMATTR InstName V2
SYMBOL MDB_sym\\source-V 64 576 M0
WINDOW 3 -149 132 Left 2
WINDOW 123 0 0 Left 2
WINDOW 39 0 0 Left 2
WINDOW 0 -53 27 Left 2
SYMATTR Value SINE(0 1 {10*2meg})
SYMATTR InstName V3
SYMBOL MDB_sym\\swMDBsingle 624 304 M180
WINDOW 3 77 9 Left 2
SYMATTR InstName U2
SYMATTR Value2 Ron=1m  Roff=100meg  Lser=0n  Vser=.0
SYMATTR Value Vt=4  Vh=-.1
SYMBOL res 624 304 R0
SYMATTR InstName R1
SYMATTR Value 0.1
SYMBOL MDB_sym\\arrow_curr 432 256 R270
WINDOW 0 4 0 VTop 2
SYMATTR InstName IA
SYMBOL MDB_sym\\source-I 496 368 M180
WINDOW 0 29 73 Left 2
WINDOW 3 29 17 Left 2
WINDOW 123 0 0 Left 2
WINDOW 39 0 0 Left 2
SYMATTR InstName I1
SYMATTR Value {Ia}
SYMBOL MDB_sym\\source-I 240 688 M180
WINDOW 0 29 73 Left 2
WINDOW 3 29 17 Left 2
WINDOW 123 0 0 Left 2
WINDOW 39 0 0 Left 2
SYMATTR InstName I2
SYMATTR Value 0A
SYMBOL MDB_sym\\isoR 240 592 R0
SYMATTR InstName R2
SYMATTR Value 1e-3
TEXT 304 72 Left 2 ;.param A1A5=1\n+ Ia = 0.15\n+ T0 = 8u\n+ p = .25
TEXT 264 744 Left 2 !.tran 0 {100*T0} {99*T0} uic
TEXT 264 712 Left 2 !.model Dx D(Ron=1m Roff=1e8 Vfwd=.5)
TEXT 496 224 Left 2 !.ic V(Va)=4V
TEXT 368 472 Left 2 !.param stat=1\n+ Ve = -9V\n+ Va = 4V\n+ Vd0 = 0.5V\n+ Cpar = 211pF\n+ Ca = 220uF\n+ L1 = 30uH
TEXT 496 72 Left 2 !.param A6=1\n+ Ia = 0.2\n+ T0 = 6u\n+ p = .333
TEXT 552 528 Left 2 ;.step param p list 0.4 0.333 0.3 0.25 0.2
