Version 4
SHEET 1 1268 1028
WIRE -224 -240 -304 -240
WIRE -96 -240 -224 -240
WIRE 32 -240 -96 -240
WIRE 64 -240 32 -240
WIRE -224 -192 -224 -240
WIRE -96 -192 -96 -240
WIRE 32 -192 32 -240
WIRE 192 -160 176 -160
WIRE 304 -160 272 -160
WIRE -96 -96 -96 -112
WIRE 176 -96 176 -160
WIRE 176 -96 -96 -96
WIRE 208 -96 176 -96
WIRE -224 -80 -224 -112
WIRE 304 -80 304 -160
WIRE 304 -80 272 -80
WIRE 336 -80 304 -80
WIRE 32 -64 32 -112
WIRE 176 -64 32 -64
WIRE 208 -64 176 -64
WIRE 176 -48 176 -64
WIRE -96 -16 -96 -96
WIRE 32 -16 32 -64
WIRE -336 32 -384 32
WIRE -224 32 -224 -16
WIRE -224 32 -256 32
WIRE -176 32 -224 32
WIRE -160 32 -176 32
WIRE 112 32 96 32
WIRE 640 32 624 32
WIRE 672 32 640 32
WIRE 800 32 752 32
WIRE 176 48 176 32
WIRE -384 64 -384 32
WIRE -224 64 -224 32
WIRE 800 64 800 32
WIRE -224 112 -224 96
WIRE -96 112 -96 80
WIRE -32 112 -96 112
WIRE 32 112 32 80
WIRE 32 112 -32 112
WIRE 144 112 144 80
WIRE -32 144 -32 112
WIRE -384 160 -384 144
WIRE 144 160 144 144
WIRE 640 160 624 160
WIRE 672 160 640 160
WIRE 800 160 800 128
WIRE 800 160 752 160
WIRE 800 192 800 160
WIRE -224 240 -224 176
WIRE 144 240 144 224
WIRE 144 240 -224 240
WIRE 144 272 144 240
WIRE 640 288 624 288
WIRE 672 288 640 288
WIRE 800 288 800 256
WIRE 800 288 752 288
WIRE 800 320 800 288
WIRE 368 368 368 336
WIRE 656 384 560 384
WIRE -240 400 -272 400
WIRE -32 400 -32 224
WIRE -32 400 -240 400
WIRE 144 400 144 384
WIRE 144 400 -32 400
WIRE 800 416 800 384
WIRE 560 432 560 384
WIRE 368 464 368 448
WIRE 560 528 560 512
WIRE 368 576 368 544
WIRE 320 688 288 688
WIRE 432 688 400 688
WIRE 464 688 432 688
FLAG 112 32 0
FLAG 144 80 0
FLAG -384 160 0
FLAG 176 48 0
FLAG 336 -80 out
FLAG -96 -96 A
FLAG 32 -64 B
FLAG -384 32 1
FLAG -240 400 V-
FLAG -224 -240 V+
FLAG -176 32 b1
FLAG 336 768 b1
FLAG 384 768 0
FLAG 288 688 0
FLAG 432 688 Vin
FLAG 368 576 0
FLAG 368 336 0
FLAG 640 32 V+
FLAG 640 160 1
FLAG 800 416 0
FLAG 640 288 V-
FLAG 560 528 0
SYMBOL EIT_Semiconductors\\npn 96 -16 M0
SYMATTR InstName Q2
SYMATTR Value NPNx
SYMBOL EIT_Semiconductors\\npn -160 -16 R0
SYMATTR InstName Q1
SYMATTR Value NPNx
SYMBOL res -112 -208 R0
SYMATTR InstName R1
SYMATTR Value {Rc1}
SYMBOL res 16 -208 R0
SYMATTR InstName R2
SYMATTR Value {Rc2}
SYMBOL MDB_sym\\source-I -32 224 R180
WINDOW 0 29 73 Left 2
WINDOW 3 29 17 Left 2
WINDOW 123 0 0 Left 2
WINDOW 39 0 0 Left 2
SYMATTR InstName I1
SYMATTR Value {I0}
SYMBOL diode 128 160 R0
SYMATTR InstName Q4
SYMATTR Value Dx
SYMBOL res -240 -208 R0
SYMATTR InstName R3
SYMATTR Value {R3}
SYMBOL res 128 288 R0
SYMATTR InstName R4
SYMATTR Value {R4}
SYMBOL MDB_sym\\source-V -384 48 M0
WINDOW 123 0 0 Left 2
WINDOW 39 0 0 Left 2
WINDOW 3 -104 168 Left 2
SYMATTR Value SINE(0 5 1k 1m)
SYMATTR InstName V1
SYMBOL res -352 48 R270
WINDOW 0 25 56 VTop 2
WINDOW 3 7 56 VBottom 2
SYMATTR InstName R5
SYMATTR Value {RA}
SYMBOL EIT_Semiconductors\\op_3 240 -80 R0
WINDOW 123 -17 69 Invisible 2
WINDOW 3 -16 43 Invisible 2
SYMATTR Value Vp={Vp-2V} Vm={Vm+1.5V} Ilim=20m
SYMATTR InstName U1
SYMATTR SpiceLine Vos=0 A0=1000k phir=45
SYMBOL res 176 -144 R270
WINDOW 0 25 56 VTop 2
WINDOW 3 7 56 VBottom 2
SYMATTR InstName R6
SYMATTR Value {Rb1}
SYMBOL res 160 -64 R0
SYMATTR InstName R7
SYMATTR Value {Rb2}
SYMBOL MDB_sym\\source-Vmarker -304 -240 R0
SYMATTR Value V={Vp}
SYMATTR InstName U2
SYMBOL MDB_sym\\source-Vmarker -272 400 R0
WINDOW 3 -20 1 Right 2
SYMATTR Value V={Vm}
SYMATTR InstName U3
SYMBOL crtl-V-V 416 688 M270
WINDOW 0 26 28 Left 2
SYMATTR InstName E1
SYMATTR Value 1
SYMBOL diode -240 -80 R0
SYMATTR InstName Q5
SYMATTR Value Dx
SYMBOL diode -240 112 R0
SYMATTR InstName Q3
SYMATTR Value Dx
SYMBOL MDB_sym\\source-I 368 464 R0
WINDOW 123 0 0 Left 2
WINDOW 39 0 0 Left 2
SYMATTR InstName I2
SYMATTR Value 1A
SYMBOL res 352 352 R0
SYMATTR InstName R8
SYMATTR Value 1
SYMBOL MDB_sym\\arrow_curr 144 288 R0
SYMATTR InstName I4
SYMBOL res 656 48 R270
WINDOW 0 25 56 VTop 2
WINDOW 3 7 56 VBottom 2
SYMATTR InstName R9
SYMATTR Value {R3}
SYMBOL res 656 176 R270
WINDOW 0 25 56 VTop 2
WINDOW 3 7 56 VBottom 2
SYMATTR InstName R10
SYMATTR Value {RA}
SYMBOL diode 784 64 R0
SYMATTR InstName Q6
SYMATTR Value Dx
SYMBOL diode 784 192 R0
SYMATTR InstName Q7
SYMATTR Value Dx
SYMBOL diode 784 384 M180
WINDOW 0 24 64 Left 2
WINDOW 3 24 0 Left 2
SYMATTR InstName Q8
SYMATTR Value Dx
SYMBOL res 768 272 R90
WINDOW 0 7 56 VBottom 2
WINDOW 3 25 56 VTop 2
SYMATTR InstName R11
SYMATTR Value {R4}
SYMBOL MDB_sym\\arrow_curr 144 128 R0
SYMATTR InstName Ic4
SYMBOL MDB_sym\\arrow_curr -224 80 R0
SYMATTR InstName Ic3
SYMBOL bv 560 416 R0
SYMATTR InstName B1
SYMATTR Value V=ddt(V(out))
TEXT 16 456 Left 2 !.param Rc1=3.3k\n+ Rc2=3.3k\n+ R3={4k3+dr1}\n+ R4={2k15}\n+ Rb1=1k\n+ Rb2=1k\n+ RA=14.14k\n+ Vbe0 = .65\n+ Vf0 = .65\n+ I0=2m\n+ Ic0={I0/2}\n+ VT=26m\n+ Vp=5V Vm=-5V\n+ Vran=25
TEXT -600 480 Left 2 !.model NPNx NPN ( Bf=500 Is={Ic0/exp(Vbe0/VT)} )\n.model Dx D (Is={Ic0/exp(Vbe0/VT)} n=1)\n.model Dy D (Vfwd={Vf0} Ron=1 Roff=10meg )
TEXT -600 448 Left 2 !;tran 3m
TEXT -232 -368 Left 2 !.dc V1 {-Vran} {Vran} .1
TEXT 504 568 Left 2 !.meas DC Ilim1 FIND abs(V(1))  WHEN I(Q7)=0 falling=first\n.meas DC Ilim2 FIND abs(V(1))  WHEN I(Q8)=0 falling=first
TEXT -336 664 Left 2 !;.step param dr1 -1k 1k 100\n.param dr1=-560*0
