Version 4
SHEET 1 1248 844
WIRE -224 -240 -304 -240
WIRE -96 -240 -224 -240
WIRE 32 -240 -96 -240
WIRE 64 -240 32 -240
WIRE -224 -192 -224 -240
WIRE -96 -192 -96 -240
WIRE 32 -192 32 -240
WIRE -96 -96 -96 -112
WIRE 176 -96 -96 -96
WIRE -224 -80 -224 -112
WIRE 32 -64 32 -112
WIRE 176 -64 32 -64
WIRE -96 -16 -96 -96
WIRE 32 -16 32 -64
WIRE -336 32 -384 32
WIRE -224 32 -224 -16
WIRE -224 32 -256 32
WIRE -176 32 -224 32
WIRE -160 32 -176 32
WIRE 112 32 96 32
WIRE -384 64 -384 32
WIRE -224 112 -224 32
WIRE -96 112 -96 80
WIRE -32 112 -96 112
WIRE 32 112 32 80
WIRE 32 112 -32 112
WIRE -32 144 -32 112
WIRE -384 160 -384 144
WIRE 144 160 144 80
WIRE -224 240 -224 176
WIRE 144 240 144 224
WIRE 144 240 -224 240
WIRE 144 304 144 240
WIRE 144 320 144 304
WIRE -240 400 -272 400
WIRE -32 400 -32 224
WIRE -32 400 -240 400
WIRE 144 400 144 384
WIRE 144 400 -32 400
FLAG 112 32 0
FLAG -384 160 0
FLAG -96 -96 A
FLAG 32 -64 B
FLAG -384 32 1
FLAG -240 400 V-
FLAG -224 -240 V+
FLAG -176 32 b1
FLAG 144 80 0
SYMBOL EIT_Semiconductors\\npn 96 -16 M0
SYMATTR InstName Q1
SYMBOL EIT_Semiconductors\\npn -160 -16 R0
SYMATTR InstName Q2
SYMBOL res -112 -208 R0
SYMATTR InstName R1
SYMATTR Value {Rc1}
SYMBOL res 16 -208 R0
SYMATTR InstName R2
SYMATTR Value {Rc2}
SYMBOL MDB_sym\\source-I -32 224 R180
WINDOW 0 29 73 Left 2
WINDOW 3 29 17 Left 2
WINDOW 123 0 0 Left 2
WINDOW 39 0 0 Left 2
SYMATTR InstName I1
SYMATTR Value {I0}
SYMBOL res -240 -208 R0
SYMATTR InstName R3
SYMATTR Value {R3}
SYMBOL res 128 288 R0
SYMATTR InstName R4
SYMATTR Value {R4}
SYMBOL MDB_sym\\source-V -384 48 M0
WINDOW 123 0 0 Left 2
WINDOW 39 0 0 Left 2
WINDOW 3 -104 168 Left 2
SYMATTR InstName V1
SYMATTR Value SINE(0 5 1k 1m)
SYMBOL res -352 48 R270
WINDOW 0 25 56 VTop 2
WINDOW 3 7 56 VBottom 2
SYMATTR InstName R5
SYMATTR Value {RA}
SYMBOL MDB_sym\\source-Vmarker -304 -240 R0
SYMATTR Value V={Vp}
SYMATTR InstName U2
SYMBOL MDB_sym\\source-Vmarker -272 400 R0
WINDOW 3 -20 1 Right 2
SYMATTR Value V={Vm}
SYMATTR InstName U3
SYMBOL diode 128 160 R0
SYMATTR InstName D1
SYMBOL diode -240 112 R0
SYMATTR InstName D2
SYMBOL diode -240 -80 R0
SYMATTR InstName D3
TEXT 16 456 Left 2 !.param Rc1=3.3k\n.param Rc2=3.3k\n.param R3=4k3\n.param R4=2k15\n.param Rb1=1k\n.param Rb2=1k\n.param RA=14.14k\n.param Vbe0 = .65\n.param Vf0 = .65\n.param I0=2m\n.param Ic0={I0/2}\n.param VT=26m\n.param Vp=5V Vm=-5V\n.param Vran=25
TEXT -600 480 Left 2 ;.model NPNx NPN ( Bf=500 Is={Ic0/exp(Vbe0/VT)} )\n.model Dx D (Is={Ic0/exp(Vbe0/VT)} n=1)\n.model Dy D (Vfwd={Vf0} Ron=1 Roff=10meg )
TEXT -600 448 Left 2 !;tran 3m
TEXT -232 -368 Left 2 !.dc V1 {-Vran} {Vran} .1
