Version 4
SHEET 1 1288 1216
WIRE -240 48 -336 48
WIRE -64 48 -240 48
WIRE 96 48 -64 48
WIRE 272 48 96 48
WIRE 320 48 272 48
WIRE -240 80 -240 48
WIRE 96 80 96 48
WIRE 272 80 272 48
WIRE 16 96 -192 96
WIRE 176 96 144 96
WIRE 224 96 176 96
WIRE -272 208 -336 208
WIRE -240 208 -240 176
WIRE -240 208 -272 208
WIRE -144 208 -240 208
WIRE 16 224 16 96
WIRE 176 224 176 96
WIRE 176 224 16 224
WIRE 272 224 272 176
WIRE 272 224 176 224
WIRE -336 240 -336 208
WIRE -144 240 -144 208
WIRE -400 256 -416 256
WIRE -384 256 -400 256
WIRE -80 256 -96 256
WIRE -64 256 -80 256
WIRE 272 256 272 224
WIRE -624 320 -640 320
WIRE -512 320 -560 320
WIRE 272 352 272 336
WIRE -144 384 -144 336
WIRE -96 384 -144 384
WIRE -48 384 -96 384
WIRE -16 384 -48 384
WIRE 96 384 96 176
WIRE 96 384 48 384
WIRE 144 384 96 384
WIRE -336 400 -336 336
WIRE -240 400 -336 400
WIRE -336 416 -336 400
WIRE -144 416 -144 384
WIRE 96 416 96 384
WIRE -560 448 -560 320
WIRE -240 496 -240 400
WIRE -240 496 -288 496
WIRE -192 496 -240 496
WIRE -48 496 -48 384
WIRE 48 496 -48 496
WIRE -560 544 -560 528
WIRE -336 576 -336 512
WIRE -336 576 -368 576
WIRE -144 576 -144 512
WIRE -144 576 -336 576
WIRE 96 576 96 512
WIRE 96 576 -144 576
WIRE 224 576 96 576
WIRE -560 720 -560 704
WIRE -48 720 -128 720
WIRE -288 736 -288 720
WIRE -128 736 -128 720
WIRE 256 768 224 768
WIRE 288 768 256 768
WIRE -560 816 -560 800
WIRE -288 832 -288 816
WIRE -128 832 -128 816
FLAG -64 256 in+
IOPIN -64 256 In
FLAG -416 256 in-
IOPIN -416 256 In
FLAG 320 48 Vdd
IOPIN 320 48 In
FLAG 224 576 Vss
IOPIN 224 576 In
FLAG -240 720 in+
IOPIN -240 720 In
FLAG -288 832 0
FLAG 272 352 0
FLAG 144 384 out
IOPIN 144 384 Out
FLAG -640 320 out
IOPIN -640 320 In
FLAG -272 208 s12
FLAG -96 384 G5
FLAG -560 544 0
FLAG -512 320 in-
IOPIN -512 320 In
FLAG -560 816 0
FLAG -128 832 0
FLAG -48 720 in+
IOPIN -48 720 In
FLAG 256 768 ft
DATAFLAG -208 192 "round(-1e6*Id(M10))*1e-6"
DATAFLAG -64 48 "round(1e3*$)*1e-3"
DATAFLAG -96 352 "round(-1e6*Id(M2))*1e-6"
DATAFLAG -384 352 "round(-1e6*Id(M1))*1e-6"
DATAFLAG 128 192 "round(-1e6*Id(M9))*1e-6"
DATAFLAG -96 432 "round(1e6*Id(M4))*1e-6"
DATAFLAG 304 192 "round(-1e6*Id(Mref))*1e-6"
DATAFLAG 288 768 "round(1e3*$)*1e-3"
SYMBOL EIT_Semiconductors\\pmos_2o -192 80 M0
SYMATTR InstName M10
SYMATTR Value P10
SYMBOL EIT_Semiconductors\\pmos_2o 144 80 M0
SYMATTR InstName M9
SYMATTR Value P9
SYMBOL EIT_Semiconductors\\pmos_2o -96 240 M0
SYMATTR InstName M2
SYMATTR Value P2
SYMBOL EIT_Semiconductors\\pmos_2o -384 240 R0
SYMATTR InstName M1
SYMATTR Value P1
SYMBOL EIT_Semiconductors\\nmos_b -288 416 M0
WINDOW 3 56 57 Left 2
SYMATTR InstName M3
SYMATTR Value N3
SYMBOL cap -16 368 M90
WINDOW 0 0 32 VBottom 2
WINDOW 3 32 32 VTop 2
SYMATTR InstName C1
SYMATTR Value {Ccomp}
SYMBOL MDB_sym\\source-Vmarker -336 48 R0
SYMATTR Value V={Vdd}
SYMATTR InstName U1
SYMBOL MDB_sym\\source-Vmarker -368 576 R0
SYMATTR Value V={Vss}
SYMATTR InstName U2
SYMBOL EIT_Semiconductors\\nmos_b -192 416 R0
WINDOW 3 56 57 Left 2
SYMATTR InstName M4
SYMATTR Value N4
SYMBOL EIT_Semiconductors\\nmos_b 48 416 R0
WINDOW 3 56 57 Left 2
SYMATTR InstName M5
SYMATTR Value N5
SYMBOL MDB_sym\\source-V -288 720 R0
WINDOW 3 -100 146 Left 2
WINDOW 123 28 107 Left 2
WINDOW 39 0 0 Left 2
SYMATTR InstName V1
SYMATTR Value PULSE(-1 1 0 100p 100p {1/(2*f0)} {1/f0})
SYMBOL EIT_Semiconductors\\pmos_2o 224 80 R0
SYMATTR InstName Mref
SYMATTR Value P9
SYMBOL MDB_sym\\source-I 272 336 R180
WINDOW 0 29 73 Left 2
WINDOW 3 29 17 Left 2
WINDOW 123 0 0 Left 2
WINDOW 39 0 0 Left 2
SYMATTR InstName I1
SYMATTR Value {I0set}
SYMBOL res -576 432 R0
SYMATTR InstName R1
SYMATTR Value 1
SYMBOL MDB_sym\\source-V -560 704 R0
WINDOW 3 -57 148 Left 2
WINDOW 123 28 107 Left 2
WINDOW 39 0 0 Left 2
SYMATTR InstName V2
SYMATTR Value SINE(0 1 {10*f0})
SYMBOL MDB_sym\\isoR0 -80 272 R0
SYMATTR InstName U3
SYMBOL MDB_sym\\isoR0 -400 272 R0
SYMATTR InstName U4
SYMBOL MDB_sym\\source-V -128 720 R0
WINDOW 3 34 85 Left 2
WINDOW 123 28 107 Left 2
WINDOW 39 0 0 Left 2
SYMATTR InstName V3
SYMATTR Value 0
SYMATTR Value2 AC 1
SYMBOL MDB_sym\\source-Vmarker 224 768 R0
WINDOW 3 154 31 Right 2
SYMATTR Value V={sqrt(2*k1*I0set)/(2*pi*Ccomp)}
SYMATTR InstName U5
TEXT -136 -128 Left 2 !.param EingStufe=1\n+ Ccomp = 4p\n+ k1 = {8u*355} k2 = {k1}\n+ k3 = {20u*100/2} k4 = {k3}\n+ k5 = {k3} k9 = {k3} k10 = {k3}
TEXT -632 -256 Left 2 !.model P1 PMOS (Kp={2*K1} Vto={Vpp} \n+ lambda = {lam12})\n.model P2 PMOS (Kp={2*K2} Vto={Vpp} \n+ lambda = {lam12})\n.model N3 NMOS (Kp={2*K3} Vto={Vpn} )\n.model N4 NMOS (Kp={2*K4} Vto={Vpn} )\n.model N5 NMOS (Kp={2*K5} Vto={Vpn} \n + lambda={lam345})\n.model P9 PMOS (Kp={2*K9} Vto={Vpp} )\n.model P10 PMOS (Kp={2*K10} Vto={Vpp} )
TEXT 216 -200 Left 2 !.param CMOS=1\n+ Vpn = 1V\n+ Vpp = -1V\n+ Vdd = 10V\n+ Vss = -10V\n+ lam12 = {1/10000}\n+ lam345 = 0\n+ f0 = 1meg\n+ I0set = 400u
TEXT -128 -176 Left 2 !.op
TEXT -56 -176 Left 2 ;.dc V1 -15 15 .001
TEXT -56 -208 Left 2 !.ac oct 1000 10 .1g
TEXT 352 304 Left 2 !.meas AC ft when mag(V(out))=1 fall=1\n.meas AC A0 max mag(V(out)) ;   A0\n.meas AC fg when mag(V(out))=A0/sqrt(2) fall=1\n.meas AC A0calc param ft/fg
TEXT -64 -248 Left 2 ;.tran 0 500n 10n
TEXT 96 664 Left 2 ;.step param I0set list 400u 350u 300u
