Version 4
SHEET 1 920 680
WIRE -528 -704 -608 -704
WIRE -448 -704 -528 -704
WIRE -336 -704 -448 -704
WIRE -608 -672 -608 -704
WIRE -448 -656 -448 -704
WIRE -336 -656 -336 -704
WIRE -528 -592 -528 -704
WIRE -608 -560 -608 -592
WIRE -448 -544 -448 -576
WIRE -400 -544 -448 -544
WIRE -336 -544 -336 -592
WIRE -336 -544 -400 -544
WIRE -448 -528 -448 -544
WIRE -528 -416 -528 -528
WIRE -448 -416 -448 -448
WIRE -448 -416 -528 -416
WIRE -400 -416 -448 -416
WIRE -368 -416 -400 -416
WIRE -160 -416 -160 -432
WIRE -448 -384 -448 -416
WIRE -464 -368 -528 -368
WIRE -448 -288 -448 -336
FLAG -528 -288 0
FLAG -608 -560 0
FLAG -448 -288 0
FLAG -160 -336 0
FLAG -448 -704 Ve
FLAG -400 -544 Ve2
FLAG -400 -416 s
SYMBOL ind -464 -544 R0
SYMATTR InstName L1
SYMATTR Value {L1}
SYMBOL MDB_sym\\swMDBsingle -464 -352 M180
SYMATTR InstName U1
SYMATTR Value2 Ron=1m  Roff=10meg  Lser=0n  Vser=.0
SYMBOL diode -544 -528 M180
WINDOW 0 24 64 Left 2
WINDOW 3 24 0 Left 2
SYMATTR InstName D1
SYMATTR Value Dx
SYMBOL cap -352 -656 R0
SYMATTR InstName C1
SYMATTR Value {Ca}
SYMBOL MDB_sym\\source-V -608 -688 M0
WINDOW 123 0 0 Left 2
WINDOW 39 0 0 Left 2
SYMATTR InstName V1
SYMATTR Value {Ve}
SYMBOL MDB_sym\\source-V -528 -384 M0
WINDOW 3 -154 136 Left 2
WINDOW 123 0 0 Left 2
WINDOW 39 0 0 Left 2
SYMATTR Value PULSE(-1 1 0 1n 1n {p*T0} {T0})
SYMATTR InstName V2
SYMBOL res -464 -672 R0
SYMATTR InstName R1
SYMATTR Value {Rfan}
SYMBOL MDB_sym\\source-V -160 -432 M0
WINDOW 3 -149 132 Left 2
WINDOW 123 0 0 Left 2
WINDOW 39 0 0 Left 2
WINDOW 0 -53 27 Left 2
SYMATTR Value SINE(0 1 {10/T0})
SYMATTR InstName V3
TEXT -160 -656 Left 2 !.model Dx D(Ron=1m Roff=1e8 Vfwd={Vd0})
TEXT -160 -584 Left 2 !.param stat2=1 ; ws13-14\n+ Ve = 12V\n+ Vd0 = 0.7V\n+ Ca = 100uF\n+ L1 = 1mH
TEXT -160 -624 Left 2 ;.tran 0 {100*T0} {98*T0}
TEXT 128 -584 Left 2 !.param A1=1\n+ T0 = 100u\n+ p = .2\n+ Rfan = 100
TEXT -160 -688 Left 2 !.tran 0 {100*T0} {98*T0}
TEXT 152 -688 Left 2 !.op
