Version 4
SHEET 1 5820 1100
WIRE 144 -416 -80 -416
WIRE 144 -384 144 -416
WIRE -80 -368 -80 -416
WIRE 784 -352 736 -352
WIRE 736 -320 736 -352
WIRE 144 -288 144 -304
WIRE -176 -224 -224 -224
WIRE -80 -224 -80 -288
WIRE -80 -224 -112 -224
WIRE -64 -224 -80 -224
WIRE -48 -224 -64 -224
WIRE 80 -224 32 -224
WIRE 560 -208 512 -208
WIRE 624 -208 560 -208
WIRE 736 -208 736 -240
WIRE 736 -208 688 -208
WIRE 768 -208 736 -208
WIRE 784 -208 768 -208
WIRE 912 -208 864 -208
WIRE 960 -208 912 -208
WIRE 992 -208 960 -208
WIRE 192 -176 144 -176
WIRE 912 -176 912 -208
WIRE -224 -160 -224 -224
WIRE 992 -160 992 -208
WIRE 192 -144 192 -176
WIRE 736 -144 736 -208
WIRE -80 -112 -80 -224
WIRE 80 -112 80 -128
WIRE 912 -80 912 -96
WIRE 912 -80 896 -80
WIRE 992 -80 992 -112
WIRE 1024 -80 992 -80
WIRE 1056 -80 1024 -80
WIRE -224 -64 -224 -80
WIRE 912 -64 912 -80
WIRE 736 -16 736 -64
WIRE 736 -16 688 -16
WIRE -80 0 -80 -32
WIRE 80 0 80 -32
WIRE 80 0 -80 0
WIRE 80 32 80 0
WIRE 912 48 912 16
WIRE 960 48 912 48
WIRE 80 128 80 112
WIRE -352 352 -448 352
WIRE -272 352 -352 352
WIRE 784 352 736 352
WIRE -352 384 -352 352
WIRE -272 384 -272 352
WIRE 240 384 176 384
WIRE 304 384 240 384
WIRE 736 384 736 352
WIRE 240 432 240 384
WIRE -352 496 -352 464
WIRE -272 496 -272 464
WIRE 560 496 544 496
WIRE 624 496 560 496
WIRE 736 496 736 464
WIRE 736 496 688 496
WIRE 768 496 736 496
WIRE 784 496 768 496
WIRE 912 496 864 496
WIRE 960 496 912 496
WIRE 992 496 960 496
WIRE 912 528 912 496
WIRE 240 544 240 512
WIRE 992 544 992 496
WIRE 736 560 736 496
WIRE -608 576 -704 576
WIRE -528 576 -608 576
WIRE -608 608 -608 576
WIRE -528 608 -528 576
WIRE 912 624 912 608
WIRE 912 624 896 624
WIRE 992 624 992 592
WIRE 1024 624 992 624
WIRE 1056 624 1024 624
WIRE 912 640 912 624
WIRE 240 672 240 624
WIRE 736 688 736 640
WIRE 736 688 688 688
WIRE -608 720 -608 688
WIRE -528 720 -528 688
WIRE 912 752 912 720
WIRE 960 752 912 752
FLAG 192 -144 0
FLAG 144 -288 0
FLAG 80 128 0
FLAG -224 -64 0
FLAG -64 -224 A
FLAG -528 720 0
FLAG -608 720 0
FLAG -608 576 A2
FLAG -272 496 0
FLAG -352 496 0
FLAG -352 352 A2
FLAG 960 -208 E
FLAG 896 -80 C
FLAG 1024 -80 B
FLAG -224 -224 in
FLAG 560 -208 in
FLAG 1056 -80 0
FLAG 768 -208 A1
FLAG 960 496 E3
FLAG 896 624 C3
FLAG 1024 624 B3
FLAG 560 496 in
FLAG 1056 624 0
FLAG 768 496 A1
FLAG 240 384 A2e
FLAG 240 672 0
SYMBOL voltage 80 16 R0
WINDOW 123 0 0 Left 2
WINDOW 39 0 0 Left 2
SYMATTR InstName V1
SYMATTR Value -20
SYMBOL voltage 144 -400 R0
WINDOW 123 0 0 Left 2
WINDOW 39 0 0 Left 2
SYMATTR InstName V2
SYMATTR Value 20
SYMBOL voltage -224 -176 R0
SYMATTR InstName V3
SYMATTR Value 0
SYMBOL pnp 144 -128 R180
WINDOW 0 -29 65 Left 2
WINDOW 3 -49 87 Left 2
SYMATTR InstName Q1
SYMATTR Value pnpx
SYMBOL res 64 -128 R0
SYMATTR InstName R1
SYMATTR Value 20k
SYMBOL res -96 -384 R0
SYMATTR InstName R2
SYMATTR Value 10k
SYMBOL res -96 -128 R0
SYMATTR InstName R3
SYMATTR Value 90k
SYMBOL diode -112 -240 R90
WINDOW 0 0 32 VBottom 2
WINDOW 3 32 32 VTop 2
SYMATTR InstName D1
SYMATTR Value 1N4148
SYMBOL res 48 -240 R90
WINDOW 0 7 56 VBottom 2
WINDOW 3 25 56 VTop 2
SYMATTR InstName R4
SYMATTR Value 10k
SYMBOL current -528 688 M180
WINDOW 0 24 80 Left 2
WINDOW 3 24 0 Left 2
WINDOW 123 0 0 Left 2
WINDOW 39 0 0 Left 2
SYMATTR InstName I1
SYMATTR Value { - 20/90k}
SYMBOL res -592 592 M0
SYMATTR InstName R5
SYMATTR Value 90k
SYMBOL current -272 464 M180
WINDOW 0 24 80 Left 2
WINDOW 3 24 0 Left 2
WINDOW 123 0 0 Left 2
WINDOW 39 0 0 Left 2
SYMATTR InstName I2
SYMATTR Value {20/10k}
SYMBOL res -336 368 M0
SYMATTR InstName R6
SYMATTR Value 10k
SYMBOL crtl-I-I_INV 912 -192 M0
WINDOW 0 -3 -36 Left 2
WINDOW 3 3 -61 Center 2
SYMATTR InstName U2
SYMATTR Value F=344
SYMBOL source-Vmarker 784 -352 M0
SYMATTR Value V=20V
SYMATTR InstName U3
SYMBOL res 768 -192 R270
WINDOW 0 32 56 VTop 2
WINDOW 3 0 56 VBottom 2
SYMATTR InstName R7
SYMATTR Value 10k
SYMBOL res 928 -80 M0
SYMATTR InstName R8
SYMATTR Value 20k
SYMBOL res 720 -336 R0
SYMATTR InstName R9
SYMATTR Value 10k
SYMBOL res 720 -48 M180
WINDOW 0 36 76 Left 2
WINDOW 3 36 40 Left 2
SYMATTR InstName R10
SYMATTR Value 20k
SYMBOL source-Vmarker 688 -16 R0
SYMATTR Value V=-20V
SYMATTR InstName U4
SYMBOL diode 688 -224 R90
WINDOW 0 0 32 VBottom 2
WINDOW 3 32 32 VTop 2
SYMATTR InstName D2
SYMATTR Value 1N4148
SYMBOL crtl-I-I_INV 912 512 M0
WINDOW 0 -6 -41 Left 2
WINDOW 3 -1 -70 Center 2
SYMATTR InstName U5
SYMATTR Value F=344
SYMBOL res 768 512 R270
WINDOW 0 32 56 VTop 2
WINDOW 3 0 56 VBottom 2
SYMATTR InstName R11
SYMATTR Value 10k
SYMBOL res 928 624 M0
SYMATTR InstName R12
SYMATTR Value 20k
SYMBOL res 720 368 R0
SYMATTR InstName R13
SYMATTR Value 10k
SYMBOL res 720 656 M180
WINDOW 0 36 76 Left 2
WINDOW 3 36 40 Left 2
SYMATTR InstName R14
SYMATTR Value 20k
SYMBOL diode 688 480 R90
WINDOW 0 0 32 VBottom 2
WINDOW 3 32 32 VTop 2
SYMATTR InstName D3
SYMATTR Value 1N4148
SYMBOL voltage 240 528 R0
WINDOW 123 0 0 Left 2
WINDOW 39 0 0 Left 2
SYMATTR InstName V4
SYMATTR Value {20V/10k+( -20V/90k)}
SYMBOL res 224 416 R0
SYMATTR InstName R15
SYMATTR Value {(10k*90k)/(10k+90k)}
SYMBOL source-Vmarker 960 48 M0
SYMATTR Value V=-20V
SYMATTR InstName U1
SYMBOL source-Vmarker 960 752 M0
SYMATTR Value V=-20V
SYMATTR InstName U6
SYMBOL source-Vmarker 688 688 R0
SYMATTR Value V=-20V
SYMATTR InstName U7
SYMBOL source-Vmarker 784 352 M0
SYMATTR Value V=20V
SYMATTR InstName U8
TEXT -320 184 Left 2 !.dc V3 -2 10 .01
TEXT 360 -200 Left 2 ;=
TEXT 192 -504 Left 2 !.model pnpx pnp (Is={Is} Bf=344)
TEXT 312 -416 Left 2 !.param Ueb=0.4V\n.param Ic0=1mA\n.param Is={Ic0/exp(Ueb/26mV)}
TEXT -240 -584 Left 2 ;.model BC557B PNP(IS=3.83E-14 NF=1.008 ISE=1.22E-14 NE=1.528 BF=344.4 IKF=0.08039 ....)
TEXT 128 -232 Left 2 ;BC557B
TEXT -56 528 Left 2 ;=
RECTANGLE Normal 448 -128 288 -272 2
RECTANGLE Normal -160 784 -736 304 2
RECTANGLE Normal 512 784 64 304 2
RECTANGLE Normal 32 600 -128 456 2
