Version 4
SHEET 1 1088 832
WIRE -48 224 -80 224
WIRE 32 224 -48 224
WIRE 160 224 96 224
WIRE 208 224 160 224
WIRE 224 224 208 224
WIRE 256 224 224 224
WIRE 400 224 336 224
WIRE 432 224 400 224
WIRE 512 224 464 224
WIRE 400 256 400 224
WIRE 512 256 512 224
WIRE 224 272 224 224
WIRE 160 288 160 224
WIRE -48 304 -48 224
WIRE 144 304 64 304
WIRE 400 352 400 320
WIRE 512 352 512 336
WIRE 64 400 64 384
WIRE 400 432 400 416
WIRE -48 448 -48 384
WIRE 16 448 -48 448
WIRE 112 448 16 448
WIRE 160 448 160 336
WIRE 160 448 112 448
WIRE 224 448 224 336
WIRE 224 448 160 448
FLAG 400 352 0
FLAG 64 400 0
FLAG 400 512 0
FLAG 208 224 s
FLAG 512 352 0
FLAG 400 224 Va
FLAG -80 224 0
FLAG 112 448 em
DATAFLAG 16 448 "round(1e3*$)*1e-3"
SYMBOL ind 240 240 R270
WINDOW 0 30 56 VTop 2
WINDOW 3 6 56 VBottom 2
SYMATTR InstName L1
SYMATTR Value {L1}
SYMBOL cap 208 272 R0
SYMATTR InstName C1
SYMATTR Value {Cpar}
SYMATTR SpiceLine Rser=10
SYMBOL MDB_sym\\swMDBsingle 144 320 M180
SYMATTR InstName U1
SYMATTR Value2 Ron=1m  Roff=10meg  Lser=0n  Vser=.0
SYMBOL diode 96 240 M270
WINDOW 0 32 32 VTop 2
WINDOW 3 0 32 VBottom 2
SYMATTR InstName D1
SYMATTR Value Dx
SYMBOL cap 384 256 R0
SYMATTR InstName C2
SYMATTR Value {Ca}
SYMBOL MDB_sym\\source-V -48 288 M0
WINDOW 123 0 0 Left 2
WINDOW 39 0 0 Left 2
SYMATTR InstName V1
SYMATTR Value {Ve}
SYMBOL MDB_sym\\source-V 64 288 M0
WINDOW 3 -173 217 Left 2
WINDOW 123 0 0 Left 2
WINDOW 39 0 0 Left 2
SYMATTR Value PULSE(-1 1 0 1n 1n {p*T0} {T0})
SYMATTR InstName V2
SYMBOL MDB_sym\\source-V 400 416 M0
WINDOW 3 -149 132 Left 2
WINDOW 123 0 0 Left 2
WINDOW 39 0 0 Left 2
WINDOW 0 -53 27 Left 2
SYMATTR Value SINE(0 1 {10/T0})
SYMATTR InstName V3
SYMBOL MDB_sym\\arrow_curr 448 224 R270
WINDOW 0 4 0 VTop 2
SYMATTR InstName IA
SYMBOL MDB_sym\\source-I 512 336 M180
WINDOW 0 29 73 Left 2
WINDOW 3 29 17 Left 2
WINDOW 123 0 0 Left 2
WINDOW 39 0 0 Left 2
SYMATTR InstName I1
SYMATTR Value {Ia}
TEXT 608 248 Left 2 ;.tran 0 {100*T0} {98*T0}
TEXT 608 200 Left 2 !.model Dx D(Ron=1m Roff=1e8 Vfwd={Vd0})
TEXT 800 416 Left 2 !.ic V(Va)=-4V
TEXT 616 296 Left 2 !.param stat=1\n+ Ve = 15V\n+ Vd0 = 0.4V\n+ Cpar = 150pF\n+ Ca = 100uF\n+ L1 = 33uH
TEXT 800 296 Left 2 !.param A6=1\n+ Ia = -.215A\n+ T0 = 10u\n+ p = .2
TEXT 872 248 Left 2 !.op
TEXT 608 464 Left 2 !.MEAS TRAN IL_min\n+ min(round(1e3*I(L1) )*1e-3)
