Version 4
SHEET 1 972 736
WIRE 304 -272 -304 -272
WIRE -304 -160 -304 -272
WIRE -240 -160 -304 -160
WIRE -144 -160 -160 -160
WIRE -128 -160 -144 -160
WIRE -32 -160 -48 -160
WIRE -144 -96 -144 -160
WIRE -128 -96 -144 -96
WIRE -32 -80 -32 -160
WIRE -32 -80 -64 -80
WIRE 0 -80 -32 -80
WIRE 128 -80 0 -80
WIRE 224 -80 128 -80
WIRE -208 -64 -256 -64
WIRE -128 -64 -208 -64
WIRE 304 -64 304 -272
WIRE 128 -48 128 -80
WIRE 224 -48 224 -80
WIRE -16 0 -48 0
WIRE -48 32 -48 0
WIRE 128 48 128 16
WIRE 224 48 224 0
WIRE 304 48 304 16
WIRE -48 128 -48 112
WIRE 352 192 336 192
WIRE 560 192 544 192
WIRE 592 192 560 192
WIRE -336 272 -352 272
WIRE -320 272 -336 272
WIRE -176 272 -224 272
WIRE -48 272 -96 272
WIRE 64 272 48 272
WIRE 112 272 64 272
WIRE 192 272 112 272
WIRE 320 304 304 304
WIRE 336 304 336 192
WIRE 336 304 320 304
WIRE 368 304 336 304
WIRE 544 304 464 304
WIRE 576 304 544 304
WIRE -272 384 -272 320
WIRE -240 384 -272 384
WIRE -224 384 -240 384
WIRE -128 384 -176 384
WIRE 112 384 112 272
WIRE 112 384 -48 384
WIRE 544 432 496 432
WIRE 576 432 544 432
WIRE 224 464 192 464
WIRE 256 464 224 464
WIRE 336 464 336 304
WIRE 416 464 336 464
WIRE -272 480 -272 384
WIRE -224 480 -272 480
WIRE -128 480 -176 480
WIRE 112 480 112 384
WIRE 112 480 -48 480
WIRE 496 480 496 432
WIRE 416 496 416 464
WIRE 192 544 192 464
WIRE 416 592 416 544
WIRE 496 592 496 560
WIRE 192 640 192 624
FLAG -48 128 0
FLAG 128 48 0
FLAG -208 -64 u1
FLAG 64 272 y
FLAG -240 384 y1
FLAG 224 48 0
FLAG 304 48 0
FLAG 304 -272 yv1
FLAG 0 -80 c1
FLAG -336 272 u1
FLAG 416 592 0
FLAG 496 592 0
FLAG 544 432 lap
FLAG 544 304 mod
FLAG 320 304 u1
FLAG 192 640 0
FLAG 224 464 u1
FLAG -16 0 vpwl
SYMBOL EIT_Semiconductors\\op_3 -96 -80 R0
WINDOW 123 -17 69 Invisible 2
WINDOW 3 -16 43 Invisible 2
SYMATTR InstName U1
SYMBOL res -256 -144 R270
WINDOW 0 25 56 VTop 2
WINDOW 3 7 56 VBottom 2
SYMATTR InstName R1
SYMATTR Value {R1}
SYMBOL res -144 -144 R270
WINDOW 0 25 56 VTop 2
WINDOW 3 7 56 VBottom 2
SYMATTR InstName R2
SYMATTR Value {R2}
SYMBOL MDB_sym\\source-V -48 16 R0
WINDOW 3 -244 191 Invisible 2
SYMATTR Value PWL(0 0 1m 0 1.001m 1 10m 1 10.001m 2 20m 2 20.001m 3)
SYMATTR InstName V1
SYMBOL EIT_PLL\\Subtraction -272 272 R0
SYMATTR InstName U2
SYMBOL MDB_sym\\GainMDB -144 272 R0
SYMATTR InstName U3
SYMBOL MDB_sym\\GainMDB -80 384 M0
SYMATTR SpiceLine K={((R1+R2)/R1)**inv}
SYMATTR InstName U4
SYMBOL MDB_sym\\pt1 0 272 R0
SYMATTR Value T={T}
SYMATTR InstName U5
SYMBOL crtl-V-V 304 -80 R0
SYMATTR InstName E1
SYMATTR Value laplace=1/(s*T+1)
SYMBOL MDB_sym\\pt1 416 304 R0
SYMATTR Value T={T}
SYMATTR InstName U6
SYMBOL crtl-V-V 496 464 R0
SYMATTR InstName E2
SYMATTR Value laplace=1/(s*T+1)
SYMBOL MDB_sym\\source-V 192 528 R0
WINDOW 3 -59 85 Left 2
WINDOW 123 28 54 Left 2
WINDOW 39 0 0 Left 2
SYMATTR Value 0
SYMATTR Value2 AC 1
SYMATTR InstName V2
SYMBOL MDB_sym\\GainMDB -80 480 M0
SYMATTR InstName U7
SYMBOL MDB_sym\\jumper -192 416 R0
SYMATTR InstName X1
SYMBOL pt2 512 192 R0
SYMATTR InstName U8
TEXT 432 112 Left 2 ;.tran 30m
TEXT 448 -224 Left 2 !.param test=1\n+ ref = .6V\n+ R1 = {10k}\n+ R2 = {10k}\n+ T = 2ms\n+ C10 = 1n\n+ R10 = {1/(T*C10)}
TEXT 442 56 Left 2 !.ac oct 100 10 10meg
TEXT 440 80 Left 2 ;.step param inv list 1 -1
TEXT 432 144 Left 2 !.param inv = 1
