Version 4
SHEET 1 880 680
WIRE -1088 -624 -1200 -624
WIRE -912 -624 -1088 -624
WIRE -672 -624 -912 -624
WIRE -384 -624 -672 -624
WIRE -352 -624 -384 -624
WIRE -1200 -592 -1200 -624
WIRE -912 -592 -912 -624
WIRE -672 -576 -672 -624
WIRE -624 -576 -672 -576
WIRE -496 -576 -560 -576
WIRE -352 -512 -352 -624
WIRE -912 -464 -912 -512
WIRE -800 -464 -912 -464
WIRE -592 -464 -800 -464
WIRE -416 -464 -592 -464
WIRE -496 -448 -496 -512
WIRE -592 -400 -592 -464
WIRE 352 -400 336 -400
WIRE -800 -384 -800 -464
WIRE -1088 -352 -1088 -624
WIRE -912 -352 -912 -464
WIRE -496 -352 -496 -368
WIRE -496 -352 -528 -352
WIRE -464 -352 -496 -352
WIRE -352 -352 -352 -416
WIRE -352 -352 -384 -352
WIRE -352 -320 -352 -352
WIRE -1232 -304 -1248 -304
WIRE -1200 -304 -1200 -512
WIRE -1200 -304 -1232 -304
WIRE -1152 -304 -1200 -304
WIRE -800 -304 -800 -320
WIRE -800 -304 -848 -304
WIRE 352 -288 352 -400
WIRE 160 -256 80 -256
WIRE 288 -240 224 -240
WIRE -800 -224 -800 -304
WIRE -752 -224 -800 -224
WIRE -416 -224 -672 -224
WIRE -352 -224 -352 -240
WIRE -352 -224 -416 -224
WIRE 160 -224 128 -224
WIRE -1088 -208 -1088 -256
WIRE -1008 -208 -1088 -208
WIRE -912 -208 -912 -256
WIRE -912 -208 -1008 -208
WIRE -352 -176 -352 -224
WIRE -1008 -160 -1008 -208
WIRE -800 -160 -800 -224
WIRE -1200 -144 -1200 -304
WIRE 0 -144 -16 -144
WIRE 128 -144 128 -224
WIRE 128 -144 80 -144
WIRE 192 -144 128 -144
WIRE 352 -144 352 -192
WIRE 352 -144 272 -144
WIRE 352 -80 352 -144
WIRE -352 -64 -352 -96
WIRE -1200 -32 -1200 -80
WIRE -1008 -32 -1008 -80
WIRE -800 -32 -800 -80
WIRE 352 48 352 0
FLAG 352 48 0
FLAG -16 -144 0
FLAG -1200 -32 0
FLAG -1008 -32 0
FLAG -800 -32 0
FLAG -352 -64 0
FLAG -1232 -304 ref
FLAG -384 -624 Ue
FLAG -416 -224 Ua
SYMBOL EIT_Semiconductors\\op_3 192 -240 M180
WINDOW 123 -17 69 Invisible 2
WINDOW 3 -16 43 Invisible 2
SYMATTR Value Vp=20 Vm=-20 Ilim=20m
SYMATTR InstName U1
SYMBOL EIT_Semiconductors\\npn 288 -288 R0
SYMATTR InstName Q1
SYMBOL source-Vmarker 336 -400 R0
SYMATTR Value V=20V
SYMATTR InstName U2
SYMBOL source-Vmarker 80 -256 R0
SYMATTR InstName U3
SYMBOL res 336 -96 R0
SYMATTR InstName R1
SYMATTR Value 1k
SYMBOL res 288 -160 R90
WINDOW 0 0 56 VBottom 2
WINDOW 3 32 56 VTop 2
SYMATTR InstName R2
SYMATTR Value 10k
SYMBOL res 96 -160 R90
WINDOW 0 0 56 VBottom 2
WINDOW 3 32 56 VTop 2
SYMATTR InstName R3
SYMATTR Value 1k
SYMBOL res -1024 -176 R0
SYMATTR InstName R4
SYMATTR Value 5k
SYMBOL source-I -1200 -512 R180
WINDOW 0 29 73 Left 2
WINDOW 3 29 17 Left 2
WINDOW 123 0 0 Left 2
WINDOW 39 0 0 Left 2
SYMATTR InstName I1
SYMATTR Value 10m
SYMBOL source-I -912 -512 R180
WINDOW 0 29 73 Left 2
WINDOW 3 29 17 Left 2
WINDOW 123 0 0 Left 2
WINDOW 39 0 0 Left 2
SYMATTR InstName I2
SYMATTR Value 100µ
SYMBOL res -816 -176 R0
SYMATTR InstName R5
SYMATTR Value {R1}
SYMBOL res -768 -208 R270
WINDOW 0 32 56 VTop 2
WINDOW 3 0 56 VBottom 2
SYMATTR InstName R6
SYMATTR Value {R2}
SYMBOL cap -816 -384 R0
SYMATTR InstName C1
SYMATTR Value 1p
SYMBOL res -368 -368 R90
WINDOW 0 0 56 VBottom 2
WINDOW 3 32 56 VTop 2
SYMATTR InstName R7
SYMATTR Value 470
SYMBOL res -368 -336 R0
SYMATTR InstName R8
SYMATTR Value {R3}
SYMBOL res -480 -464 M0
SYMATTR InstName R9
SYMATTR Value 5k
SYMBOL source-Vmarker -1200 -624 R0
SYMATTR Value V=20V
SYMATTR InstName U4
SYMBOL EIT_Semiconductors\\npn -1152 -352 R0
SYMATTR InstName Q2
SYMATTR Value LM3046
SYMBOL EIT_Semiconductors\\npn -848 -352 M0
SYMATTR InstName Q3
SYMATTR Value LM3046
SYMBOL EIT_Semiconductors\\npn -416 -512 R0
SYMATTR InstName Q4
SYMATTR Value Q2N2222A
SYMBOL EIT_Semiconductors\\npn -528 -400 M0
SYMATTR InstName Q5
SYMATTR Value BC547BP
SYMBOL zener -1184 -80 R180
WINDOW 0 24 64 Left 2
WINDOW 3 24 0 Left 2
SYMATTR InstName D1
SYMATTR Value 1N750
SYMATTR Description Diode
SYMATTR Type diode
SYMBOL zener -480 -512 R180
WINDOW 0 24 64 Left 2
WINDOW 3 24 0 Left 2
SYMATTR InstName D2
SYMATTR Value BZX84C12L
SYMATTR Description Diode
SYMATTR Type diode
SYMBOL res -368 -192 R0
SYMATTR InstName R10
SYMATTR Value {RL}
SYMBOL zener -560 -592 R90
WINDOW 0 -4 32 VBottom 2
WINDOW 3 36 32 VTop 2
SYMATTR InstName D3
SYMATTR Value 1N5373B
SYMATTR Description Diode
SYMATTR Type diode
TEXT -1008 -792 Left 2 ;Ua=(1+R2/R1)*Uref\nIa_max=0.6V/R3  [für (Ue-Ua) < Vz_D2]
TEXT -208 -920 Left 2 !.param Ua_set=5V\n.param Ia_max=500mA\n \n.param R1=5k\n.param R2={(Ua_set/(4.7*0.98)-1)*R1}\n.param R3={0.2V/Ia_max}\n.param RL=700
TEXT -680 -832 Left 2 ;.step param RL list 1k 500 200 10 1
TEXT -106 -680 Left 2 !.op
TEXT -232 -624 Left 2 !.step param Rl 1k 50 -40
