* Configureable jumper models
*
* 30-11-2015 MDB
*

*******************************************************************************
* Single control voltage connection
*******************************************************************************
*******************************************************************************
.subckt jumperConfig 1 2  
R1 1 2 {(1-cl)*R_open+R_close}
.ENDS
