*SRC=1N4935;DI_1N4935;Diodes;Si;  200V  1.00A  200ns   Diodes Inc. Fast
Rectifier
.MODEL DI_1N4935 D  ( IS=830n RS=34.0m BV=200 IBV=5.00u
+ CJO=26.5p  M=0.333 N=2.46 TT=288n )