*SRC=ES1D;DI_ES1D;Diodes;Si;  200V  1.00A  20.0ns   Diodes Inc. 
.MODEL DI_ES1D D  ( IS=123n RS=42.0m BV=200 IBV=5.00u
+ CJO=18.5p  M=0.333 N=2.12 TT=28.8n )