*SRC=ES1A;DI_ES1A;Diodes;Si;  50.0V  1.00A  20.0ns   Diodes Inc. 
.MODEL DI_ES1A D  ( IS=123n RS=42.0m BV=50.0 IBV=5.00u
+ CJO=18.5p  M=0.333 N=2.12 TT=28.8n )