***************************************************************************************
*SRC=ES2CA;DI_ES2CA;Diodes;Si;  150V  2.00A  25.0ns   Diodes Inc. Fast
Rectifier
.MODEL DI_ES2CA D  ( IS=267n RS=21.0m BV=150 IBV=5.00u
+ CJO=83.5p  M=0.333 N=1.70 TT=36.0n )
*****************************************************************************************