*SRC=MUR120;DI_MUR120;Diodes;Si;  200V  1.00A  25.0ns   Diodes Inc. Super Fast Rectifier
.MODEL DI_MUR120 D  ( IS=7.06e-017 RS=73.4m BV=200 IBV=2.00u
+ CJO=49.9p  M=0.333 N=0.700 TT=36.0n )