*SRC=MURS320;DI_MURS320;Diodes;Si;  200V  3.00A  25.0ns   Diodes Inc. Super Fast Rectifier
.MODEL DI_MURS320 D  ( IS=11.8n RS=7.89m BV=200 IBV=5.00u
+ CJO=45.0p  M=0.333 N=1.56 TT=36.0n )
***********************************************************************************************************************************