*SRC=RS1K;DI_RS1K;Diodes;Si;  800V  1.00A  500ns   Diodes Inc. Fast Rectifier
.MODEL DI_RS1K D  ( IS=948n RS=81.3m BV=800 IBV=5.00u
+ CJO=27.7p  M=0.333 N=2.48 TT=720n )
**************************************************************************************************************************************