*SRC=RS1D;DI_RS1D;Diodes;Si;  200V  1.00A  150ns   Diodes Inc. Fast Rectifier
.MODEL DI_RS1D D  ( IS=948n RS=81.3m BV=200 IBV=5.00u
+ CJO=27.7p  M=0.333 N=2.48 TT=216n )
**************************************************************************************************************************************