*SRC=RS3K;DI_RS3K;Diodes;Si;  800V  3.00A  500ns   Diodes Inc. Fast Rectifier
.MODEL DI_RS3K D  ( IS=200n RS=25.4m BV=800 IBV=5.00u
+ CJO=92.5p  M=0.333 N=2.23 TT=720n )
***********************************************************************************************************