*SRC=RS1A;DI_RS1A;Diodes;Si;  50.0V  1.00A  150ns   Diodes Inc. Fast Rectifier
.MODEL DI_RS1A D  ( IS=948n RS=81.3m BV=50.0 IBV=5.00u
+ CJO=27.7p  M=0.333 N=2.48 TT=216n )
*************************************************************************************************************************************