*SRC=RS3J;DI_RS3J;Diodes;Si;  600V  3.00A  250ns   Diodes Inc. Fast Rectifier
.MODEL DI_RS3J D  ( IS=200n RS=25.4m BV=600 IBV=5.00u
+ CJO=92.5p  M=0.333 N=2.23 TT=360n )
**********************************************************************************************************