*SRC=SF10CG;DI_SF10CG;Diodes;Si;  150V  1.00A  35.0ns   Diodes Inc. 
.MODEL DI_SF10CG D  ( IS=1.42n RS=42.0m BV=150 IBV=10.0u
+ CJO=139p  M=0.333 N=1.70 TT=50.4n )