*SRC=SF10BG;DI_SF10BG;Diodes;Si;  100V  1.00A  35.0ns   Diodes Inc. 
.MODEL DI_SF10BG D  ( IS=1.42n RS=42.0m BV=100 IBV=10.0u
+ CJO=139p  M=0.333 N=1.70 TT=50.4n )