*SRC=UF3006;DI_UF3006;Diodes;Si;  800V  3.00A  75.0ns   Diodes Inc. Ultra-Fast Rectifier
.MODEL Di_UF3006 D  ( IS=4.50u RS=14.1m BV=800 IBV=10.0u
+ CJO=92.5p  M=0.333 N=4.29 TT=108n )