*SRC=US1G;DI_US1G;Diodes;Si;  400V  1.00A  50.0ns   Diodes Inc. 
.MODEL DI_US1G D  ( IS=540p RS=0.116 BV=400 IBV=5.00u
+ CJO=37.0p  M=0.333 N=1.70 TT=72.0n )