*SRC=1N4933;DI_1N4933;Diodes;Si;  50.0V  1.00A  200ns   Diodes Inc. Fast
Rectifier
.MODEL DI_1N4933 D  ( IS=830n RS=34.0m BV=50.0 IBV=5.00u
+ CJO=26.5p  M=0.333 N=2.46 TT=288n )