*SRC=US1B;DI_US1B;Diodes;Si;  100V  1.00A  50.0ns   Diodes Inc. -
.MODEL DI_US1B D  ( IS=667n RS=72.0m BV=100 IBV=5.00u
+ CJO=37.0p  M=0.333 N=2.41 TT=72.0n )