*SRC=UF1007;DI_UF1007;Diodes;Si;  1.00kV  1.00A  50.0ns   Diodes Inc. 1.0A Ultra-Fast Rectifier
.MODEL DI_UF1007 D  ( IS=13.9u RS=56.6m BV=1.00k IBV=5.00u
+ CJO=46.4p  M=0.333 N=4.11 TT=72.0n )