*SRC=MURS120;DI_MURS120;Diodes;Si;  200V  1.00A  25.0ns   Diodes Inc. Super Fast Rectifier
.MODEL DI_MURS120 D  ( IS=17.1n RS=20.6m BV=200 IBV=2.00u
+ CJO=60.0p  M=0.333 N=1.73 TT=36.0n )
************************************************************************************************************************************