*SRC=RS3D;DI_RS3D;Diodes;Si;  200V  3.00A  150ns   Diodes Inc. Fast Rectifier
.MODEL DI_RS3D D  ( IS=200n RS=25.4m BV=200 IBV=5.00u
+ CJO=92.5p  M=0.333 N=2.23 TT=216n )
**********************************************************************************************************