*SRC=SF10GG;DI_SF10GG;Diodes;Si; 400V 1.00A 40.0ns Diodes Inc. -
.MODEL DI_SF10GG D ( IS=50.9p RS=75.5m BV=400 IBV=10.0u
+ CJO=139p M=0.333 N=1.70 TT=57.6n )