*SRC=SF10FG;DI_SF10FG;Diodes;Si; 300V 1.00A 40.0ns Diodes Inc. -
.MODEL DI_SF10FG D ( IS=50.9p RS=75.5m BV=300 IBV=10.0u
+ CJO=139p M=0.333 N=1.70 TT=57.6n )