*SRC=UF1001;DI_UF1001;Diodes;Si;  50.0V  1.00A  50.0ns   Diodes Inc. 1.0A Ultra-Fast Rectifier
.MODEL DI_UF1001 D  ( IS=125u RS=17.5m BV=50.0 IBV=5.00u
+ CJO=79.6p  M=0.333 N=3.75 TT=72.0n )