Version 4
SHEET 1 1156 900
WIRE -64 -176 -64 -224
WIRE 32 -176 32 -224
WIRE -64 -64 -64 -96
WIRE -16 -64 -64 -64
WIRE 32 -64 32 -96
WIRE 32 -64 -16 -64
WIRE 576 -64 272 -64
WIRE 1008 -64 656 -64
WIRE -16 -48 -16 -64
WIRE 272 0 272 -64
WIRE 320 0 272 0
WIRE 432 0 400 0
WIRE 608 64 560 64
WIRE 720 64 688 64
WIRE 1104 64 720 64
WIRE 1152 64 1104 64
WIRE 272 80 272 0
WIRE 336 80 272 80
WIRE 432 80 432 0
WIRE 432 80 400 80
WIRE 912 112 864 112
WIRE 1008 112 1008 -64
WIRE 1008 112 976 112
WIRE 368 176 368 160
WIRE -336 192 -480 192
WIRE -144 192 -192 192
WIRE 48 192 -144 192
WIRE 272 192 272 80
WIRE 336 192 272 192
WIRE 656 192 656 176
WIRE 432 208 432 80
WIRE 432 208 400 208
WIRE 448 208 432 208
WIRE 560 208 560 64
WIRE 560 208 528 208
WIRE 624 208 560 208
WIRE 944 208 944 192
WIRE -480 224 -480 192
WIRE 272 224 272 192
WIRE 720 224 720 64
WIRE 720 224 688 224
WIRE 752 224 720 224
WIRE 864 224 864 112
WIRE 864 224 832 224
WIRE 912 224 864 224
WIRE 560 240 560 208
WIRE 976 240 960 240
WIRE 1008 240 1008 112
WIRE 1008 240 976 240
WIRE -144 256 -192 256
WIRE -112 256 -144 256
WIRE 368 256 368 240
WIRE 864 256 864 224
WIRE 656 272 656 256
WIRE 944 288 944 272
WIRE -480 320 -480 304
WIRE 48 368 48 192
WIRE 192 368 48 368
WIRE 272 368 272 304
WIRE 272 368 192 368
WIRE 560 368 560 320
WIRE 560 368 272 368
WIRE 864 368 864 336
WIRE 864 368 560 368
WIRE 0 416 -80 416
WIRE 48 416 0 416
WIRE 48 448 48 416
WIRE 768 496 688 496
WIRE 800 496 768 496
WIRE 688 560 688 496
WIRE 48 576 48 528
WIRE 688 656 688 640
WIRE 768 704 688 704
WIRE 800 704 768 704
WIRE 688 736 688 704
WIRE 688 880 688 816
FLAG 48 576 0
FLAG -16 -48 0
FLAG -64 -224 V+
FLAG 32 -224 V-
FLAG 368 160 V+
FLAG 368 256 V-
FLAG 656 176 V+
FLAG 656 272 V-
FLAG 944 192 V+
FLAG 944 288 V-
FLAG 1104 64 out
FLAG 336 224 0
FLAG 624 240 0
FLAG 912 256 0
FLAG 192 368 in
FLAG -144 256 cos
FLAG -480 320 0
FLAG -144 192 sin
FLAG 688 656 0
FLAG 688 880 0
FLAG 768 704 inMul
FLAG 768 496 outMul
FLAG 0 416 fc
SYMBOL voltage 48 432 R0
WINDOW 123 24 124 Left 2
WINDOW 39 0 0 Left 2
SYMATTR InstName V1
SYMATTR Value SINE(0 1 2meg)
SYMATTR Value2 AC 1
SYMBOL voltage -64 -192 R0
WINDOW 123 0 0 Left 2
WINDOW 39 0 0 Left 2
SYMATTR InstName V2
SYMATTR Value 20
SYMBOL voltage 32 -192 R0
WINDOW 123 0 0 Left 2
WINDOW 39 0 0 Left 2
SYMATTR InstName V3
SYMATTR Value -20
SYMBOL Opamps\\UniversalOpamp2 368 208 R0
SYMATTR InstName U1
SYMATTR Value2 Avol=10Meg GBW=100Meg Slew=100Meg
SYMBOL res 288 208 M0
SYMATTR InstName R3
SYMATTR Value 5k
SYMBOL res 432 192 M90
WINDOW 0 0 56 VBottom 2
WINDOW 3 32 56 VTop 2
SYMATTR InstName R4
SYMATTR Value 10k
SYMBOL res 544 336 M180
WINDOW 0 36 76 Left 2
WINDOW 3 36 40 Left 2
SYMATTR InstName R5
SYMATTR Value 10k
SYMBOL res 704 80 M270
WINDOW 0 32 56 VTop 2
WINDOW 3 0 56 VBottom 2
SYMATTR InstName R6
SYMATTR Value 10k
SYMBOL res 848 240 M270
WINDOW 0 32 56 VTop 2
WINDOW 3 0 56 VBottom 2
SYMATTR InstName R7
SYMATTR Value 10k
SYMBOL res 880 240 M0
SYMATTR InstName R8
SYMATTR Value 10k
SYMBOL res 560 -80 M90
WINDOW 0 0 56 VBottom 2
WINDOW 3 32 56 VTop 2
SYMATTR InstName R9
SYMATTR Value 10k
SYMBOL res 304 -16 M90
WINDOW 0 0 56 VBottom 2
WINDOW 3 32 56 VTop 2
SYMATTR InstName R10
SYMATTR Value 10k
SYMBOL cap 976 96 R90
WINDOW 0 0 32 VBottom 2
WINDOW 3 32 32 VTop 2
SYMATTR InstName C1
SYMATTR Value 100p
SYMBOL cap 400 64 R90
WINDOW 0 0 32 VBottom 2
WINDOW 3 32 32 VTop 2
SYMATTR InstName C2
SYMATTR Value 100p
SYMBOL Opamps\\UniversalOpamp2 656 224 R0
SYMATTR InstName U3
SYMATTR Value2 Avol=10Meg GBW=100Meg Slew=100Meg
SYMBOL Opamps\\UniversalOpamp2 944 240 R0
SYMATTR InstName U4
SYMATTR Value2 Avol=10Meg GBW=100Meg Slew=100Meg
SYMBOL SpecialFunctions\\modulate2 -336 192 R0
WINDOW 3 -1 129 Left 2
SYMATTR Value space={F0} mark={F1}
SYMATTR InstName A1
SYMBOL voltage -480 208 R0
WINDOW 123 0 0 Left 2
WINDOW 39 0 0 Left 2
WINDOW 3 -97 151 Left 2
SYMATTR Value PULSE(0 1 0 {tb})
SYMATTR InstName V4
SYMBOL bv 688 544 R0
SYMATTR InstName B1
SYMATTR Value V=V(out)*V(fc)
SYMBOL bv 688 720 R0
SYMATTR InstName B2
SYMATTR Value V=V(in)*V(fc)
TEXT -336 -16 Left 2 !.param F0=50kk\n.param F1=250kk\n.param tb = 10m
TEXT -640 0 Left 2 !.tran 0 {tb} 0
TEXT -656 40 Left 2 !.options plotwinsize=0
