Version 4
SHEET 1 1108 680
WIRE 512 -400 512 -416
WIRE 512 -400 480 -400
WIRE 608 -400 608 -416
WIRE 640 -400 608 -400
WIRE 512 -384 512 -400
WIRE 608 -384 608 -400
WIRE 208 -368 192 -368
WIRE 304 -368 288 -368
WIRE 400 -368 384 -368
WIRE 128 -320 128 -368
WIRE 128 -320 96 -320
WIRE 400 -320 400 -368
WIRE 432 -320 400 -320
WIRE 128 -272 128 -320
WIRE 224 -272 128 -272
WIRE 400 -272 400 -320
WIRE 400 -272 288 -272
WIRE 512 -272 512 -320
WIRE 608 -272 608 -304
WIRE 96 -160 80 -160
WIRE 192 -160 176 -160
WIRE 96 -80 80 -80
WIRE 96 -48 80 -48
WIRE 96 -16 80 -16
WIRE 96 16 80 16
WIRE 800 16 800 0
WIRE 832 16 832 0
WIRE 864 16 864 0
WIRE 896 16 896 0
WIRE 928 16 928 0
WIRE 960 16 960 0
WIRE 992 16 992 0
WIRE 1024 16 1024 -16
WIRE 1056 16 1056 -16
WIRE 96 48 80 48
WIRE 96 80 80 80
FLAG 432 -320 1
IOPIN 432 -320 BiDir
FLAG 96 -320 2
IOPIN 96 -320 BiDir
FLAG 80 -16 Cp
IOPIN 80 -16 BiDir
FLAG 80 16 fp
IOPIN 80 16 BiDir
FLAG 192 -160 0
FLAG 80 -160 ok
IOPIN 80 -160 BiDir
FLAG 80 -80 Cs
IOPIN 80 -80 BiDir
FLAG 80 -48 fs
IOPIN 80 -48 BiDir
FLAG 512 -480 0
FLAG 608 -480 0
FLAG 512 -272 0
FLAG 608 -272 0
FLAG 640 -400 XLs
FLAG 480 -400 Xcs
FLAG 80 48 df
IOPIN 80 48 BiDir
FLAG 80 80 Qm
IOPIN 80 80 BiDir
FLAG 896 0 Cp
IOPIN 896 0 BiDir
FLAG 864 0 fp
IOPIN 864 0 BiDir
FLAG 960 0 Cs
IOPIN 960 0 BiDir
FLAG 928 0 fs
IOPIN 928 0 BiDir
FLAG 832 0 df
IOPIN 832 0 BiDir
FLAG 800 0 Qm
IOPIN 800 0 BiDir
FLAG 992 0 ok
IOPIN 992 0 BiDir
FLAG 1024 -16 Xcs
FLAG 1056 -16 XLs
SYMBOL res 304 -352 M270
WINDOW 0 25 56 VTop 2
WINDOW 3 7 56 VBottom 2
SYMATTR InstName R1
SYMATTR Value {Rs}
SYMBOL cap 192 -352 M270
WINDOW 0 32 32 VTop 2
WINDOW 3 0 32 VBottom 2
SYMATTR InstName C1
SYMATTR Value {Cs}
SYMBOL cap 288 -256 M270
WINDOW 0 32 32 VTop 2
WINDOW 3 0 32 VBottom 2
SYMATTR InstName C2
SYMATTR Value {Cp}
SYMBOL ind 400 -352 M270
WINDOW 0 32 56 VTop 2
WINDOW 3 5 56 VBottom 2
SYMATTR InstName L1
SYMATTR Value {Ls}
SYMBOL MDB_sym\\source-Vmarker 96 -16 M0
SYMATTR Value V={Cp}
SYMATTR InstName U1
SYMBOL MDB_sym\\source-Vmarker 96 16 M0
SYMATTR Value V={fp}
SYMATTR InstName U2
SYMBOL bv 80 -160 R270
WINDOW 0 14 102 VTop 2
WINDOW 3 -18 312 VBottom 2
SYMATTR InstName B1
SYMATTR Value V=if(V(Cp)>10*V(Cs),1,0)
SYMBOL MDB_sym\\source-Vmarker 96 -80 M0
SYMATTR Value V={Cs}
SYMATTR InstName U3
SYMBOL MDB_sym\\source-Vmarker 96 -48 M0
SYMATTR Value V={fs}
SYMATTR InstName U4
SYMBOL MDB_sym\\source-Imini 512 -448 M0
WINDOW 3 21 -6 Left 2
WINDOW 0 21 18 Left 2
WINDOW 39 0 0 Left 2
SYMATTR Value ""
SYMATTR InstName I1
SYMATTR Value2 AC 1
SYMBOL cap 496 -384 R0
SYMATTR InstName C3
SYMATTR Value {Cs}
SYMBOL ind 592 -400 R0
SYMATTR InstName L2
SYMATTR Value {Ls}
SYMBOL MDB_sym\\source-Imini 608 -448 M0
WINDOW 3 21 -6 Left 2
WINDOW 0 21 18 Left 2
WINDOW 39 0 0 Left 2
SYMATTR Value ""
SYMATTR InstName I2
SYMATTR Value2 AC 1
SYMBOL MDB_sym\\source-Vmarker 96 48 M0
SYMATTR Value V={fp-fs}
SYMATTR InstName U5
SYMBOL MDB_sym\\source-Vmarker 96 80 M0
SYMATTR Value V={1/(2*pi*fs*Cs*Rs)}
SYMATTR InstName U6
SYMBOL MDB_sym\\isoR0 800 32 R0
SYMATTR InstName U7
SYMBOL MDB_sym\\isoR0 832 32 R0
SYMATTR InstName U8
SYMBOL MDB_sym\\isoR0 864 32 R0
SYMATTR InstName U9
SYMBOL MDB_sym\\isoR0 896 32 R0
SYMATTR InstName U10
SYMBOL MDB_sym\\isoR0 992 32 R0
SYMATTR InstName U14
SYMBOL MDB_sym\\isoR0 960 32 R0
SYMATTR InstName U11
SYMBOL MDB_sym\\isoR0 928 32 R0
SYMATTR InstName U12
SYMBOL MDB_sym\\isoR0 1024 32 R0
SYMATTR InstName U13
SYMBOL MDB_sym\\isoR0 1056 32 R0
SYMATTR InstName U15
TEXT 696 -272 Left 2 !.param Cryst=1\n+ Rs = 10\n+ Cs = 98.9p\n+ Ls = {1/((2*pi*fs)**2*Cs)}\n+ Cp = {Cs/(Cs*Ls*(2*pi*fp)**2-1)}\n+ fs = {1/(2*pi*sqrt(Ls*Cs))}\n+ fp = {1/(2*pi*sqrt(Ls*Cs*Cp/(Cs+Cp)))}
TEXT 696 -472 Left 2 ;fs = 1/(2*pi*sqrt(Ls*Cs))\nCs = 1/((2*pi*fs)**2*Ls)\nLs = 1/((2*pi*fs)**2*Cs)\n \nfp = 1/(2*pi*sqrt(Ls*Cs*Cp/(Cs+Cp)))\nCp = Cs/(Cs*Ls*(2*pi*fp)**2-1)\nCs = Cp/(Cp*Ls*(2*pi*fp)**2-1)
TEXT 256 -160 Left 2 ;... wenn Cs << Cp --> ok = 1
TEXT 248 -48 Left 2 ;.                 Cs.Ls*s**2+Cs.Rs*s+1\nZ(s)=----------------------------------------------------\n           s*(Cs+Cp*(Cs.Ls*s**2+Cs.Rs*s+1))
TEXT 24 -496 Left 2 ;------------------------------------------------------------------\n|    Quarz Crystal / ceramic resonator model\n------------------------------------------------------------------
RECTANGLE Normal 568 -96 232 -192 2
RECTANGLE Normal 712 40 232 -72 2
