Version 4
SHEET 1 880 696
WIRE -32 160 -128 160
WIRE 96 160 -32 160
WIRE -32 272 -32 160
WIRE 96 272 96 160
WIRE 96 400 96 352
WIRE -32 448 -32 352
WIRE 32 448 -32 448
WIRE -32 528 -32 448
WIRE 96 528 96 496
WIRE -32 656 -32 608
WIRE 96 656 96 608
FLAG 96 656 0
FLAG -32 656 0
SYMBOL source-Vmarker -128 160 R0
SYMATTR Value V=12V
SYMATTR InstName U1
SYMBOL EIT_Semiconductors\\npn 32 400 R0
SYMATTR InstName Q1
SYMATTR Value 2N2369
SYMBOL res 80 512 R0
SYMATTR InstName R1
SYMATTR Value 0.5
SYMBOL res 80 256 R0
SYMATTR InstName R2
SYMATTR Value 2
SYMBOL res -48 512 R0
SYMATTR InstName R3
SYMATTR Value {rs*set}
SYMBOL res -48 256 R0
SYMATTR InstName R4
SYMATTR Value 1k
TEXT -226 680 Left 0 !.tran 1m
TEXT -400 400 Left 0 !.param rs = 25k\n.param set = 0.5
TEXT -456 448 Left 0 !.step param set 0.01 1 0.1
