Version 4
SHEET 1 880 876
WIRE -352 -128 -416 -128
WIRE -240 -128 -288 -128
WIRE 256 -96 224 -96
WIRE 352 -96 320 -96
WIRE -416 -32 -416 -128
WIRE -368 -32 -416 -32
WIRE -240 -32 -240 -128
WIRE -240 -32 -288 -32
WIRE -112 -16 -144 -16
WIRE -64 -16 -112 -16
WIRE -32 -16 -64 -16
WIRE 64 -16 48 -16
WIRE 192 -16 160 -16
WIRE 224 -16 224 -96
WIRE 224 -16 192 -16
WIRE 240 -16 224 -16
WIRE 352 -16 352 -96
WIRE 352 -16 320 -16
WIRE -64 0 -64 -16
WIRE 160 16 160 -16
WIRE 64 32 64 -16
WIRE 80 32 64 32
WIRE -608 48 -672 48
WIRE -560 48 -608 48
WIRE -528 48 -560 48
WIRE -416 48 -416 -32
WIRE -416 48 -448 48
WIRE -384 48 -416 48
WIRE -272 64 -320 64
WIRE -240 64 -240 -32
WIRE -240 64 -272 64
WIRE -672 80 -672 48
WIRE -384 80 -400 80
WIRE 80 80 64 80
WIRE -560 96 -560 48
WIRE -400 112 -400 80
WIRE -64 112 -64 64
WIRE 64 112 64 80
WIRE 160 112 160 96
WIRE 352 112 352 -16
WIRE -672 192 -672 160
WIRE -560 192 -560 160
WIRE 144 256 80 256
WIRE 224 256 144 256
WIRE 80 272 80 256
WIRE -32 288 -96 288
WIRE 0 288 -32 288
WIRE 224 288 224 256
WIRE 0 336 -16 336
WIRE -16 384 -16 336
WIRE 80 384 80 352
WIRE 224 384 224 368
FLAG -672 192 0
FLAG 64 112 0
FLAG -64 112 0
FLAG 160 112 0
FLAG 352 112 0
FLAG -560 192 0
FLAG -400 112 0
FLAG -608 48 in
FLAG -112 -16 in
FLAG 192 -16 ideal
FLAG -272 64 outOp
FLAG 80 384 0
FLAG -16 384 0
FLAG 144 256 lap3
FLAG -32 288 in
FLAG 224 384 0
FLAG -656 448 0
SYMBOL crtl-I-I 160 0 R0
SYMATTR InstName U1
SYMATTR Value F=-1
SYMBOL res -48 0 R270
WINDOW 0 25 56 VTop 0
WINDOW 3 7 56 VBottom 0
SYMATTR InstName R3
SYMATTR Value {R1}
SYMBOL cap -80 0 R0
WINDOW 0 -25 7 Left 0
WINDOW 3 -48 65 Left 0
SYMATTR InstName C3
SYMATTR Value {C1}
SYMBOL source-V -656 352 R0
WINDOW 123 0 0 Left 0
WINDOW 39 0 0 Left 0
SYMATTR InstName V1
SYMATTR Value ac 1
SYMBOL res 224 0 R270
WINDOW 0 25 56 VTop 0
WINDOW 3 7 56 VBottom 0
SYMATTR InstName R4
SYMATTR Value {R2}
SYMBOL cap 256 -80 R270
WINDOW 0 32 32 VTop 0
WINDOW 3 0 32 VBottom 0
SYMATTR InstName C4
SYMATTR Value {C2}
SYMBOL cap -576 96 R0
SYMATTR InstName C1
SYMATTR Value {C1}
SYMBOL res -384 -16 R270
WINDOW 0 25 56 VTop 0
WINDOW 3 7 56 VBottom 0
SYMATTR InstName R2
SYMATTR Value {R2}
SYMBOL res -544 64 R270
WINDOW 0 25 56 VTop 0
WINDOW 3 7 56 VBottom 0
SYMATTR InstName R1
SYMATTR Value {R1}
SYMBOL cap -352 -112 R270
WINDOW 0 32 32 VTop 0
WINDOW 3 0 32 VBottom 0
SYMATTR InstName C2
SYMATTR Value {C2}
SYMBOL EIT_Semiconductors\\op_3 -352 64 R0
WINDOW 123 -102 120 Left 0
WINDOW 3 -103 92 Left 0
SYMATTR InstName U2
SYMATTR Value2 FT=50Meg SR=100
SYMBOL crtl-V-V 80 256 R0
WINDOW 3 -165 187 Left 0
SYMATTR InstName E3
SYMATTR Value laplace=-R2/R1*(1+s*R1*C1)/(1+s*R2*C2)
SYMBOL res 208 272 R0
SYMATTR InstName R7
SYMATTR Value 1
SYMBOL source-I -672 80 R0
WINDOW 123 0 0 Left 0
WINDOW 39 0 0 Left 0
SYMATTR InstName I1
SYMATTR Value ac 100u
TEXT -532 304 Left 0 !.ac oct 100 1 100meg
TEXT -536 352 Left 0 !.param R1 = 453\n.param C1 = 470p\n.param R2 = 16.9k\n.param C2 = 330p
TEXT -544 520 Left 0 !.step param C1 list 470p  1e-50
