Version 4
SHEET 1 880 680
WIRE 128 -464 64 -464
WIRE 192 -464 128 -464
WIRE 192 -416 192 -464
WIRE -144 -400 -144 -528
WIRE 64 -336 64 -464
WIRE -272 -320 -272 -448
WIRE 192 -288 192 -336
WIRE 192 -288 128 -288
WIRE -144 -272 -144 -320
WIRE -144 -272 -208 -272
WIRE 192 -240 192 -288
WIRE -144 -224 -144 -272
WIRE 192 -224 192 -240
WIRE -144 -208 -144 -224
WIRE 64 -192 64 -240
WIRE 128 -192 64 -192
WIRE 160 -192 128 -192
WIRE -272 -176 -272 -224
WIRE -208 -176 -272 -176
WIRE -176 -176 -208 -176
WIRE -736 -160 -736 -208
WIRE 64 -160 64 -192
WIRE -272 -144 -272 -176
WIRE 192 -128 192 -160
WIRE -144 -112 -144 -144
WIRE -736 -64 -736 -80
WIRE 64 -32 64 -80
WIRE 192 -32 192 -128
WIRE 192 -32 64 -32
WIRE -272 -16 -272 -64
WIRE -224 -16 -272 -16
WIRE -144 -16 -144 -112
WIRE -144 -16 -224 -16
WIRE 64 16 64 -32
WIRE -672 80 -672 48
WIRE -560 80 -560 48
WIRE 64 128 64 96
WIRE -672 192 -672 160
WIRE -608 192 -672 192
WIRE -560 192 -560 160
WIRE -560 192 -608 192
WIRE -608 208 -608 192
FLAG -224 -16 Vm
FLAG -144 -528 0
FLAG -272 -528 0
FLAG 128 -464 Vp
FLAG 64 128 0
FLAG -608 208 0
FLAG -672 48 Vm
FLAG -560 48 Vp
FLAG -736 -64 0
SYMBOL npn 128 -336 M0
SYMATTR InstName Q1
SYMATTR Value 2N2222
SYMBOL res 48 -176 R0
SYMATTR InstName R1
SYMATTR Value 1k
SYMBOL res 176 -432 R0
SYMATTR InstName R2
SYMATTR Value 4.8kk
SYMBOL res 48 0 R0
SYMATTR InstName R3
SYMATTR Value 220
SYMBOL npn -208 -320 M0
SYMATTR InstName Q2
SYMATTR Value 2N2222
SYMBOL res -288 -160 R0
SYMATTR InstName R4
SYMATTR Value 1k
SYMBOL res -160 -416 R0
SYMATTR InstName R5
SYMATTR Value 4.7k
SYMBOL res -288 -544 R0
SYMATTR InstName R6
SYMATTR Value 220
SYMBOL TLV431TI -144 -160 R0
SYMATTR InstName U1
SYMBOL TLV431TI 192 -176 R0
SYMATTR InstName U2
SYMBOL voltage -672 64 R0
WINDOW 123 0 0 Left 2
WINDOW 39 0 0 Left 2
SYMATTR InstName V1
SYMATTR Value {-Vsup}
SYMBOL voltage -560 64 R0
WINDOW 123 0 0 Left 2
WINDOW 39 0 0 Left 2
SYMATTR InstName V2
SYMATTR Value {Vsup}
SYMBOL voltage -736 -176 R0
WINDOW 123 0 0 Left 2
WINDOW 39 0 0 Left 2
SYMATTR InstName V3
SYMATTR Value {Vsup}
TEXT -360 64 Left 2 !.param Vsup=30\n.param Ik=3.9m\n.param R1=10k\n.param R2=20k\n.param rail=0
TEXT -104 208 Left 2 ;.step param R2 40k 10k 5k
TEXT -96 176 Left 2 ;.step param rail 0 -5 -1
TEXT 336 200 Left 2 !.step temp list 27 80
TEXT -368 216 Left 2 !.dc V3 -1 1 0.01
