Version 4
SHEET 1 1080 680
WIRE -176 -1520 -448 -1520
WIRE 32 -1520 -176 -1520
WIRE 144 -1520 32 -1520
WIRE 160 -1520 144 -1520
WIRE 256 -1520 160 -1520
WIRE 656 -1520 256 -1520
WIRE 144 -1488 144 -1520
WIRE -448 -1440 -448 -1520
WIRE -176 -1440 -176 -1520
WIRE 32 -1440 32 -1520
WIRE 256 -1440 256 -1520
WIRE 144 -1408 144 -1424
WIRE 656 -1344 656 -1520
WIRE -688 -1328 -688 -1376
WIRE -592 -1328 -592 -1376
WIRE 656 -1328 656 -1344
WIRE -448 -1312 -448 -1360
WIRE 480 -1312 -448 -1312
WIRE 576 -1312 560 -1312
WIRE 608 -1312 576 -1312
WIRE 32 -1264 32 -1360
WIRE -688 -1232 -688 -1248
WIRE -640 -1232 -688 -1232
WIRE -592 -1232 -592 -1248
WIRE -592 -1232 -640 -1232
WIRE 144 -1216 144 -1344
WIRE 144 -1216 96 -1216
WIRE 256 -1216 256 -1376
WIRE 256 -1216 144 -1216
WIRE 656 -1216 656 -1232
WIRE -640 -1200 -640 -1232
WIRE -448 -1184 -448 -1312
WIRE -384 -1184 -448 -1184
WIRE -272 -1184 -304 -1184
WIRE -176 -1184 -176 -1360
WIRE -176 -1184 -208 -1184
WIRE -448 -1104 -448 -1184
WIRE -176 -1104 -176 -1184
WIRE -704 -1056 -736 -1056
WIRE -672 -1056 -704 -1056
WIRE -560 -1056 -592 -1056
WIRE -512 -1056 -560 -1056
WIRE -80 -1056 -112 -1056
WIRE -736 -1008 -736 -1056
WIRE -448 -960 -448 -1008
WIRE -176 -960 -176 -1008
WIRE -80 -912 -80 -1056
WIRE 384 -912 -80 -912
WIRE 464 -912 384 -912
WIRE 592 -912 544 -912
WIRE -736 -896 -736 -928
WIRE 32 -864 32 -1168
WIRE 32 -864 -16 -864
WIRE -448 -816 -448 -880
WIRE -176 -816 -176 -880
WIRE -176 -816 -448 -816
WIRE 32 -816 -176 -816
WIRE 384 -816 384 -912
WIRE 480 -816 384 -816
WIRE 592 -816 592 -912
WIRE 592 -816 544 -816
WIRE 656 -816 656 -1216
WIRE 656 -816 592 -816
WIRE 736 -816 656 -816
WIRE 752 -816 736 -816
WIRE 864 -816 832 -816
WIRE -176 -752 -448 -752
WIRE -16 -752 -16 -864
WIRE -16 -752 -176 -752
WIRE 384 -752 384 -816
WIRE 256 -736 256 -1216
WIRE -448 -704 -448 -752
WIRE -176 -704 -176 -752
WIRE 384 -608 384 -672
WIRE -448 -544 -448 -624
WIRE -176 -544 -176 -624
WIRE -560 -496 -560 -1056
WIRE -512 -496 -560 -496
WIRE -80 -496 -80 -912
WIRE -80 -496 -112 -496
WIRE 32 -432 32 -816
WIRE 160 -384 96 -384
WIRE 256 -384 256 -656
WIRE 256 -384 160 -384
WIRE -448 -368 -448 -448
WIRE -416 -368 -448 -368
WIRE -288 -368 -336 -368
WIRE -176 -368 -176 -448
WIRE -176 -368 -224 -368
WIRE 656 -368 656 -816
WIRE 656 -352 656 -368
WIRE -448 -272 -448 -368
WIRE 464 -272 -448 -272
WIRE 592 -272 544 -272
WIRE 608 -272 592 -272
WIRE 160 -240 160 -384
WIRE 656 -240 656 -256
WIRE -176 -192 -176 -368
WIRE 32 -192 32 -336
WIRE 256 -192 256 -384
WIRE -448 -176 -448 -272
WIRE 160 -144 160 -176
WIRE -448 -32 -448 -96
WIRE -176 -32 -176 -112
WIRE -176 -32 -448 -32
WIRE -48 -32 -176 -32
WIRE 32 -32 32 -112
WIRE 32 -32 -48 -32
WIRE 160 -32 160 -80
WIRE 160 -32 32 -32
WIRE 256 -32 256 -128
WIRE 256 -32 160 -32
WIRE 656 -32 656 -240
WIRE 656 -32 256 -32
FLAG 384 -608 0
FLAG 864 -816 0
FLAG -736 -896 0
FLAG -640 -1200 0
FLAG -592 -1376 Vmin
FLAG -688 -1376 Vplus
FLAG 736 -816 out
FLAG 160 -1520 Vplus
FLAG -48 -32 Vmin
FLAG -704 -1056 in
FLAG 592 -272 G1
FLAG 656 -368 D1
FLAG 656 -1344 S2
FLAG 656 -1216 D2
FLAG 656 -240 S1
FLAG 576 -1312 G2
SYMBOL EIT_Semiconductors\\nmos 608 -352 R0
SYMATTR InstName M1
SYMATTR Value SI4404DY
SYMBOL EIT_Semiconductors\\pmos 608 -1232 M180
SYMATTR InstName M2
SYMATTR Value Si7409DN
SYMBOL res -576 -1072 R90
WINDOW 0 7 56 VBottom 0
WINDOW 3 25 56 VTop 0
SYMATTR InstName R1
SYMATTR Value 1k
SYMBOL EIT_Semiconductors\\npn -512 -1104 R0
SYMATTR InstName Q1
SYMATTR Value BC550C
SYMBOL res -464 -976 R0
SYMATTR InstName R2
SYMATTR Value 22.1
SYMBOL res -192 -976 R0
SYMATTR InstName R3
SYMATTR Value 22.1
SYMBOL res -464 -720 R0
SYMATTR InstName R4
SYMATTR Value 22.1
SYMBOL res -192 -720 R0
SYMATTR InstName R5
SYMATTR Value 22.1
SYMBOL EIT_Semiconductors\\pnp -512 -448 M180
SYMATTR InstName Q3
SYMATTR Value BC560C
SYMBOL EIT_Semiconductors\\pnp -112 -448 R180
SYMATTR InstName Q4
SYMATTR Value BC560C
SYMBOL res -320 -384 R90
WINDOW 0 7 56 VBottom 0
WINDOW 3 25 56 VTop 0
SYMATTR InstName R6
SYMATTR Value 47
SYMBOL cap -224 -384 R90
WINDOW 0 0 32 VBottom 0
WINDOW 3 32 32 VTop 0
SYMATTR InstName C1
SYMATTR Value 2.7n
SYMBOL cap -208 -1200 R90
WINDOW 0 0 32 VBottom 0
WINDOW 3 32 32 VTop 0
SYMATTR InstName C2
SYMATTR Value 2.7n
SYMBOL res -288 -1200 R90
WINDOW 0 7 56 VBottom 0
WINDOW 3 25 56 VTop 0
SYMATTR InstName R7
SYMATTR Value 47
SYMBOL res -464 -1456 R0
SYMATTR InstName R8
SYMATTR Value 800
SYMBOL res -192 -1456 R0
SYMATTR InstName R9
SYMATTR Value 800
SYMBOL res -464 -192 R0
SYMATTR InstName R10
SYMATTR Value 1.6k
SYMBOL res -192 -208 R0
SYMATTR InstName R11
SYMATTR Value 1.6k
SYMBOL res 16 -208 R0
SYMATTR InstName RE1
SYMATTR Value 270
SYMBOL cap 240 -192 R0
SYMATTR InstName C3
SYMATTR Value 100µ
SYMBOL res 240 -752 R0
SYMATTR InstName R12
SYMATTR Value 22k
SYMBOL EIT_Semiconductors\\pnp 96 -1168 R180
SYMATTR InstName Q6
SYMATTR Value BC560C
SYMBOL res 16 -1456 R0
SYMATTR InstName R13
SYMATTR Value 220
SYMBOL cap 240 -1440 R0
SYMATTR InstName C4
SYMATTR Value 100µ
SYMBOL res 464 -1296 R270
WINDOW 0 25 56 VTop 0
WINDOW 3 7 56 VBottom 0
SYMATTR InstName R14
SYMATTR Value 15
SYMBOL res 560 -928 R90
WINDOW 0 7 56 VBottom 0
WINDOW 3 25 56 VTop 0
SYMATTR InstName R15
SYMATTR Value 160
SYMBOL cap 544 -832 R90
WINDOW 0 0 32 VBottom 0
WINDOW 3 32 32 VTop 0
SYMATTR InstName C5
SYMATTR Value 9.1n
SYMBOL res 368 -768 R0
SYMATTR InstName R16
SYMATTR Value 82
SYMBOL res 448 -256 R270
WINDOW 0 25 56 VTop 0
WINDOW 3 7 56 VBottom 0
SYMATTR InstName R17
SYMATTR Value 15
SYMBOL res 736 -832 M90
WINDOW 0 7 56 VBottom 0
WINDOW 3 25 56 VTop 0
SYMATTR InstName R18
SYMATTR Value 3
SYMBOL source-V -736 -1024 R0
WINDOW 123 0 0 Left 0
WINDOW 39 0 0 Left 0
SYMATTR InstName V1
SYMATTR Value SINE(0 8 {fsin})
SYMBOL source-V -688 -1344 R0
WINDOW 123 0 0 Left 0
WINDOW 39 0 0 Left 0
SYMATTR InstName V2
SYMATTR Value 25
SYMBOL source-V -592 -1344 R0
WINDOW 123 0 0 Left 0
WINDOW 39 0 0 Left 0
SYMATTR InstName V3
SYMATTR Value -25
SYMBOL diode 128 -1488 R0
SYMATTR InstName D3
SYMATTR Value 1N4148
SYMBOL EIT_Semiconductors\\npn -688 -1616 M0
SYMATTR InstName Q7
SYMATTR Value BC550C
SYMBOL EIT_Semiconductors\\npn -112 -1104 M0
SYMATTR InstName Q2
SYMATTR Value BC550C
SYMBOL EIT_Semiconductors\\npn 96 -432 M0
SYMATTR InstName Q5
SYMATTR Value BC550C
SYMBOL EIT_Semiconductors\\pnp -528 -1520 R180
SYMATTR InstName Q8
SYMATTR Value BC560C
SYMBOL diode 128 -1408 R0
SYMATTR InstName D1
SYMATTR Value 1N4148
SYMBOL diode 144 -240 R0
SYMATTR InstName D4
SYMATTR Value 1N4148
SYMBOL diode 144 -144 R0
SYMATTR InstName D2
SYMATTR Value 1N4148
TEXT -752 -384 Left 0 !.tran {4/fsin}
TEXT -760 -424 Left 0 !.param fsin=1k
TEXT -832 -816 Left 0 ;V(in): -12V ... 12V\nV(out) => Vmin ... Vplus
TEXT 456 -640 Left 0 !.param Rp=100meg
TEXT 304 -1600 Left 0 !.model MySw SW(Ron=.1 Roff=10T Von=-1 Voff=30)
