Version 4
SHEET 1 880 680
WIRE -2000 -1824 -2000 -1872
WIRE -1872 -1824 -1872 -1872
WIRE -1712 -1824 -1712 -1872
WIRE -1584 -1824 -1584 -1872
WIRE -2000 -1712 -2000 -1744
WIRE -1936 -1712 -2000 -1712
WIRE -1872 -1712 -1872 -1744
WIRE -1872 -1712 -1936 -1712
WIRE -1712 -1712 -1712 -1744
WIRE -1648 -1712 -1712 -1712
WIRE -1584 -1712 -1584 -1744
WIRE -1584 -1712 -1648 -1712
WIRE -1936 -1696 -1936 -1712
WIRE -1648 -1696 -1648 -1712
WIRE -816 -1440 -816 -1552
WIRE -816 -1440 -1456 -1440
WIRE -1456 -1408 -1456 -1440
WIRE -816 -1376 -816 -1440
WIRE -1456 -1296 -1456 -1328
WIRE -1456 -1296 -1856 -1296
WIRE -1264 -1296 -1456 -1296
WIRE -1136 -1296 -1264 -1296
WIRE -864 -1296 -1056 -1296
WIRE -1264 -1280 -1264 -1296
WIRE -1456 -1216 -1456 -1296
WIRE -1264 -1200 -1264 -1216
WIRE -816 -1168 -816 -1280
WIRE -816 -1168 -1328 -1168
WIRE -1104 -1088 -1328 -1088
WIRE -1040 -1088 -1104 -1088
WIRE -944 -1088 -960 -1088
WIRE -816 -1088 -816 -1168
WIRE -816 -1088 -864 -1088
WIRE -2032 -1024 -2144 -1024
WIRE -1968 -1024 -2032 -1024
WIRE -1824 -1024 -1888 -1024
WIRE -1616 -1024 -1824 -1024
WIRE -1616 -1008 -1616 -1024
WIRE -1616 -1008 -1648 -1008
WIRE -1584 -1008 -1616 -1008
WIRE -1104 -1008 -1104 -1024
WIRE -1104 -1008 -1328 -1008
WIRE -816 -1008 -1104 -1008
WIRE -576 -1008 -816 -1008
WIRE -1104 -992 -1104 -1008
WIRE -2144 -960 -2144 -1024
WIRE -2032 -944 -2032 -1024
WIRE -1984 -944 -2032 -944
WIRE -1824 -944 -1824 -1024
WIRE -1824 -944 -1904 -944
WIRE -1104 -928 -1328 -928
WIRE -1024 -928 -1104 -928
WIRE -816 -928 -864 -928
WIRE -816 -848 -816 -928
WIRE -816 -848 -1328 -848
WIRE -2144 -832 -2144 -880
WIRE -816 -784 -816 -848
WIRE -576 -784 -576 -1008
WIRE -1456 -768 -1456 -800
WIRE -1264 -768 -1456 -768
WIRE -1136 -768 -1264 -768
WIRE -864 -768 -1056 -768
WIRE -1456 -736 -1456 -768
WIRE -1264 -736 -1264 -768
WIRE -1264 -656 -1264 -672
WIRE -1456 -592 -1456 -656
WIRE -816 -592 -816 -688
WIRE -816 -592 -1456 -592
WIRE -816 -496 -816 -592
WIRE -576 -336 -576 -704
FLAG -1648 -1696 0
FLAG -1712 -1872 Vplus
FLAG -1584 -1872 Vmin
FLAG -1264 -656 0
FLAG -1264 -1200 0
FLAG -816 -1552 Vplus
FLAG -816 -496 Vmin
FLAG -2144 -832 0
FLAG -1936 -1696 0
FLAG -2000 -1872 Vopp
FLAG -576 -336 0
SYMBOL SpecialFunctions\\LT1166 -1456 -1008 R0
SYMATTR InstName U1
SYMBOL voltage -1712 -1840 R0
WINDOW 123 0 0 Left 2
WINDOW 39 0 0 Left 2
SYMATTR InstName V1
SYMATTR Value {Vsup}
SYMBOL voltage -1584 -1840 R0
WINDOW 123 0 0 Left 2
WINDOW 39 0 0 Left 2
SYMATTR InstName V2
SYMATTR Value {-Vsup}
SYMBOL res -1040 -1312 R90
WINDOW 0 0 56 VBottom 2
WINDOW 3 32 56 VTop 2
SYMATTR InstName R1
SYMATTR Value 100
SYMBOL nmos -864 -1376 R0
SYMATTR InstName M1
SYMATTR Value IRFP240
SYMBOL res -1040 -784 R90
WINDOW 0 0 56 VBottom 2
WINDOW 3 32 56 VTop 2
SYMATTR InstName R2
SYMATTR Value 100
SYMBOL pmos -864 -688 M180
SYMATTR InstName M2
SYMATTR Value IRFP9240
SYMBOL res -592 -800 R0
SYMATTR InstName R5
SYMATTR Value 2
SYMBOL voltage -2144 -976 R0
WINDOW 123 0 0 Left 2
WINDOW 39 0 0 Left 2
SYMATTR InstName V3
SYMATTR Value PULSE(-1 1 0 10m 10m 0 20m)
SYMBOL voltage -2000 -1840 R0
WINDOW 123 0 0 Left 2
WINDOW 39 0 0 Left 2
SYMATTR InstName V4
SYMATTR Value {Vop}
SYMBOL voltage -1872 -1840 R0
WINDOW 123 0 0 Left 2
WINDOW 39 0 0 Left 2
SYMATTR InstName V5
SYMATTR Value {-Vop}
SYMBOL current -1456 -1408 R0
WINDOW 123 0 0 Left 2
WINDOW 39 0 0 Left 2
SYMATTR InstName I1
SYMATTR Value 20.1m
SYMBOL current -1456 -736 R0
WINDOW 123 0 0 Left 2
WINDOW 39 0 0 Left 2
SYMATTR InstName I2
SYMATTR Value 20m
SYMBOL res -832 -1024 R0
SYMATTR InstName R3
SYMATTR Value 0.2
SYMBOL res -832 -1104 R0
SYMATTR InstName R4
SYMATTR Value 0.2
SYMBOL res -848 -1104 R90
WINDOW 0 0 56 VBottom 2
WINDOW 3 32 56 VTop 2
SYMATTR InstName R9
SYMATTR Value 1k
SYMBOL res -848 -944 R90
WINDOW 0 0 56 VBottom 2
WINDOW 3 32 56 VTop 2
SYMATTR InstName R10
SYMATTR Value 1k
SYMBOL cap -1120 -1088 R0
SYMATTR InstName C2
SYMATTR Value 1µ
SYMBOL cap -1120 -992 R0
SYMATTR InstName C3
SYMATTR Value 1µ
SYMBOL ind -1872 -1040 R90
WINDOW 0 5 56 VBottom 2
WINDOW 3 32 56 VTop 2
SYMATTR InstName L1
SYMATTR Value 1µ
SYMBOL res -1888 -960 R90
WINDOW 0 0 56 VBottom 2
WINDOW 3 32 56 VTop 2
SYMATTR InstName R6
SYMATTR Value 10
SYMBOL ind -944 -1104 R90
WINDOW 0 5 56 VBottom 2
WINDOW 3 32 56 VTop 2
SYMATTR InstName L2
SYMATTR Value 1µ
SYMBOL ind -928 -944 R90
WINDOW 0 5 56 VBottom 2
WINDOW 3 32 56 VTop 2
SYMATTR InstName L3
SYMATTR Value 1µ
TEXT -1272 -1736 Left 2 !.param VSUP=15\n.param Vop=16
TEXT -1264 -1800 Left 2 !.tran 100m startup
TEXT -1488 -1232 Left 2 ;1
TEXT -1600 -1032 Left 2 ;2
TEXT -1320 -1032 Left 2 ;3
TEXT -1488 -784 Left 2 ;4
TEXT -1320 -864 Left 2 ;5
TEXT -1320 -944 Left 2 ;6
TEXT -1320 -1104 Left 2 ;7
TEXT -1320 -1184 Left 2 ;8
