Version 4
SHEET 1 928 872
WIRE 240 128 80 128
WIRE 416 128 240 128
WIRE 688 128 416 128
WIRE 848 128 688 128
WIRE 0 144 -80 144
WIRE 80 144 80 128
WIRE 240 144 240 128
WIRE 0 160 0 144
WIRE -512 176 -768 176
WIRE -512 208 -512 176
WIRE 0 240 0 208
WIRE 240 240 240 208
WIRE -768 256 -768 176
WIRE 80 256 80 224
WIRE -512 320 -512 288
WIRE -768 384 -768 336
WIRE -80 400 -80 144
WIRE 16 400 -80 400
WIRE 176 400 16 400
WIRE 272 400 176 400
WIRE 352 400 272 400
WIRE 448 400 352 400
WIRE 592 400 448 400
WIRE -368 416 -432 416
WIRE -320 416 -368 416
WIRE -432 432 -432 416
WIRE -80 432 -80 400
WIRE -512 448 -512 400
WIRE 272 448 272 400
WIRE 352 448 352 400
WIRE 448 448 448 400
WIRE 592 448 592 400
WIRE 688 512 688 128
WIRE 688 512 640 512
WIRE -432 528 -432 512
WIRE -80 544 -80 512
WIRE 272 544 272 512
WIRE 352 544 352 528
WIRE 448 544 448 528
WIRE 592 544 592 528
WIRE -768 560 -768 464
WIRE -768 560 -784 560
WIRE -512 576 -512 496
WIRE -864 592 -864 560
WIRE 176 592 176 400
WIRE 176 592 -432 592
WIRE -432 656 -432 640
WIRE -768 688 -768 560
WIRE -512 688 -512 656
WIRE -512 688 -768 688
WIRE 0 688 -80 688
WIRE 48 688 0 688
WIRE -80 720 -80 688
WIRE -80 832 -80 800
FLAG -80 544 0
FLAG 16 400 speed
FLAG -432 656 0
FLAG -432 528 0
FLAG -368 416 cf
FLAG -80 832 0
FLAG 0 688 TRC
FLAG 272 544 0
FLAG 352 544 0
FLAG 448 544 0
FLAG 592 544 0
FLAG 0 240 0
FLAG 80 256 0
FLAG 240 240 0
FLAG 416 128 pos
FLAG 640 464 0
FLAG -864 592 0
SYMBOL ind -528 192 R0
SYMATTR InstName L1
SYMATTR Value 180µ
SYMBOL res -528 304 R0
SYMATTR InstName R1
SYMATTR Value 2
SYMBOL crtl-I-V -432 416 R0
SYMATTR InstName U1
SYMATTR Value H=1
SYMBOL crtl-V-V -512 560 M0
SYMATTR InstName BEME1
SYMATTR Value {BEM}
SYMBOL Function-V -80 416 R0
SYMATTR InstName B1
SYMATTR Value V=V(cf)*V(TRC)
SYMBOL source-V -80 704 R0
WINDOW 123 0 0 Left 0
WINDOW 39 0 0 Left 0
SYMATTR InstName V3
SYMATTR Value {TRC}
SYMBOL cap 256 448 R0
SYMATTR InstName C1
SYMATTR Value {RIN}
SYMBOL ind 336 432 R0
WINDOW 3 -8 171 Left 0
SYMATTR InstName L2
SYMATTR Value {1/KTR}
SYMBOL res 432 432 R0
WINDOW 3 15 176 Left 0
SYMATTR InstName R2
SYMATTR Value {1/FR}
SYMBOL sw 592 432 M0
SYMATTR InstName S1
SYMATTR Value break
SYMBOL crtl-V-I 80 128 R0
SYMATTR InstName G1
SYMATTR Value 1
SYMBOL cap 224 144 R0
SYMATTR InstName C2
SYMATTR Value 1
SYMBOL source-V -768 368 R0
WINDOW 3 -86 -312 Left 0
WINDOW 123 -86 -284 Left 0
WINDOW 39 0 0 Left 0
SYMATTR InstName V4
SYMATTR Value PULSE(-10 10 0.01 10u 10u 1000)
SYMATTR Value2 AC 1
SYMBOL res -768 544 R90
WINDOW 0 7 56 VBottom 0
WINDOW 3 25 56 VTop 0
SYMATTR InstName R3
SYMATTR Value 10meg
SYMBOL res -784 240 R0
SYMATTR InstName R5
SYMATTR Value 10
TEXT 224 712 Left 0 !.model break sw (Ron=50m Roff=100meg Vt=20 Vh=-0.1)
TEXT -884 856 Left 0 !.tran 1000 startup
TEXT -8 -128 Left 0 !.param KTR=47m\n.param TRC=15m\n.param BEM=0.9m\n.param FR=4u\n.param RIN=1.25e-8
