Version 4
SHEET 1 1040 1736
WIRE -352 16 -480 16
WIRE 144 32 16 32
WIRE -480 48 -480 16
WIRE 16 64 16 32
WIRE 880 96 880 48
WIRE 976 96 976 48
WIRE -384 128 -416 128
WIRE -272 128 -384 128
WIRE 112 144 80 144
WIRE -384 160 -384 128
WIRE -272 160 -272 128
WIRE 112 176 112 144
WIRE 880 224 880 176
WIRE 976 224 976 176
WIRE 976 224 880 224
WIRE 112 256 112 240
WIRE 976 256 976 224
WIRE -480 272 -480 208
WIRE -384 272 -384 240
WIRE -384 272 -480 272
WIRE 16 288 16 224
WIRE 112 288 112 256
WIRE 112 288 16 288
WIRE -384 304 -384 272
WIRE -480 352 -480 272
WIRE -448 352 -480 352
WIRE 112 368 112 288
WIRE -384 448 -384 400
WIRE -320 448 -384 448
WIRE -272 448 -272 240
WIRE -272 448 -320 448
WIRE 112 480 112 448
WIRE -320 496 -320 448
WIRE -320 608 -320 576
FLAG 144 32 Vplus
FLAG 112 480 0
FLAG 976 256 0
FLAG 976 48 Vmin
FLAG 880 48 Vplus
FLAG -352 16 Vplus
FLAG -320 608 0
SYMBOL LM334 16 144 R0
SYMATTR InstName U1
SYMBOL res 96 160 R0
SYMATTR InstName R1
SYMATTR Value {Rset}
SYMBOL res 96 352 R0
SYMATTR InstName R2
SYMATTR Value 200
SYMBOL source-V 880 80 R0
WINDOW 123 0 0 Left 0
WINDOW 39 0 0 Left 0
WINDOW 3 -87 92 Left 0
SYMATTR Value {vsup}
SYMATTR InstName V1
SYMBOL source-V 976 80 R0
WINDOW 123 0 0 Left 0
WINDOW 39 0 0 Left 0
WINDOW 3 -72 98 Left 0
SYMATTR Value {-vsup}
SYMATTR InstName V2
SYMBOL LM334 -480 128 R0
SYMATTR InstName U2
SYMBOL res -400 144 R0
SYMATTR InstName R3
SYMATTR Value 48.52
SYMBOL res -288 144 R0
SYMATTR InstName R4
SYMATTR Value {6.0815*48.52}
SYMBOL EIT_Semiconductors\\npn -448 304 R0
SYMATTR InstName Q1
SYMATTR Value BC547B
SYMBOL res -336 480 R0
SYMATTR InstName R5
SYMATTR Value 200
TEXT 440 8 Left 0 !.param Rset=10
TEXT 440 64 Left 0 !.step param Rset 10 30 5
TEXT 440 168 Left 0 !.param Ik1=4.05m\n.param bias=2.5k\n.param Rs=1u\n.param vsup=16\n.param RSet =10
TEXT 440 344 Left 0 !.op
