Version 4
SHEET 1 3060 1920
WIRE 2160 80 2160 32
WIRE 2256 80 2256 32
WIRE 1552 208 1552 192
WIRE 2160 208 2160 160
WIRE 2256 208 2256 160
WIRE 2256 208 2160 208
WIRE 2256 240 2256 208
WIRE 1936 288 1936 176
WIRE 1936 288 1728 288
WIRE 1552 336 1552 288
WIRE 1632 336 1552 336
WIRE 1648 336 1632 336
WIRE 1664 336 1648 336
WIRE 1936 352 1936 288
WIRE 2096 352 2048 352
WIRE 1648 368 1648 336
WIRE 2048 384 2048 352
WIRE 1728 400 1728 384
WIRE 1776 400 1728 400
WIRE 1840 400 1776 400
WIRE 1872 400 1840 400
WIRE 1552 416 1552 336
WIRE 1840 432 1840 400
WIRE 1776 448 1776 400
WIRE 2304 464 2304 416
WIRE 2048 496 2048 480
WIRE 2096 496 2096 352
WIRE 2096 496 2048 496
WIRE 2048 512 2048 496
WIRE 1552 544 1552 496
WIRE 1776 544 1776 512
WIRE 1840 544 1840 512
WIRE 1840 544 1776 544
WIRE 1936 544 1936 448
WIRE 1936 544 1840 544
WIRE 2304 544 2304 528
WIRE 1936 560 1936 544
WIRE 1312 608 1296 608
WIRE 1312 624 1312 608
WIRE 1152 640 1136 640
WIRE 1280 640 1232 640
WIRE 1376 656 1344 656
WIRE 1472 656 1376 656
WIRE 1552 656 1552 608
WIRE 1552 656 1472 656
WIRE 1936 656 1936 640
WIRE 2048 656 1936 656
WIRE 2160 656 2048 656
WIRE 1280 672 1248 672
WIRE 1936 672 1936 656
WIRE 2080 688 2048 688
WIRE 2304 688 2304 624
WIRE 1312 704 1312 688
WIRE 1312 704 1296 704
WIRE 912 720 896 720
WIRE 1552 720 1552 656
WIRE 2048 720 2048 688
WIRE 2160 720 2160 656
WIRE 1136 752 1120 752
WIRE 1248 752 1248 672
WIRE 1248 752 1216 752
WIRE 1264 752 1248 752
WIRE 1376 752 1376 656
WIRE 1376 752 1344 752
WIRE 1840 768 1776 768
WIRE 1936 768 1936 752
WIRE 1936 768 1840 768
WIRE 2304 784 2304 768
WIRE 896 800 896 720
WIRE 1840 800 1840 768
WIRE 1776 816 1776 768
WIRE 2048 816 2048 800
WIRE 2080 816 2080 688
WIRE 2080 816 2048 816
WIRE 1248 832 1248 752
WIRE 1280 832 1248 832
WIRE 1376 832 1376 752
WIRE 1376 832 1344 832
WIRE 1552 832 1552 784
WIRE 2048 832 2048 816
WIRE 2160 832 2160 800
WIRE 2080 864 2048 864
WIRE 1936 880 1936 768
WIRE 896 896 896 880
WIRE 1776 928 1776 880
WIRE 1776 928 1728 928
WIRE 1840 928 1840 880
WIRE 1840 928 1776 928
WIRE 1872 928 1840 928
WIRE 1728 944 1728 928
WIRE 2048 944 2048 864
WIRE 2304 944 2304 848
WIRE 960 960 896 960
WIRE 976 960 960 960
WIRE 896 992 896 960
WIRE 1552 992 1552 912
WIRE 1616 992 1552 992
WIRE 1632 992 1632 960
WIRE 1632 992 1616 992
WIRE 1664 992 1632 992
WIRE 1552 1024 1552 992
WIRE 1936 1040 1936 976
WIRE 1936 1040 1728 1040
WIRE 2048 1056 2048 1040
WIRE 2080 1056 2080 864
WIRE 2080 1056 2048 1056
WIRE 2048 1072 2048 1056
WIRE 896 1104 896 1072
WIRE 1552 1120 1552 1104
WIRE 1936 1168 1936 1040
WIRE 1936 1168 1920 1168
WIRE 1120 1264 1120 752
WIRE 1424 1264 1120 1264
WIRE 1600 1264 1504 1264
WIRE 1760 1264 1600 1264
WIRE 2112 1264 2016 1264
WIRE 2160 1264 2160 912
WIRE 2160 1264 2112 1264
WIRE 1424 1280 1424 1264
WIRE 1856 1280 1840 1280
WIRE 1504 1296 1504 1264
WIRE 1760 1312 1760 1264
WIRE 1840 1312 1840 1280
WIRE 2016 1312 2016 1264
WIRE 1424 1376 1424 1360
WIRE 2160 1424 2160 1264
WIRE 1840 1600 1840 1568
WIRE 1856 1600 1840 1600
WIRE 2016 1600 2016 1568
WIRE 2160 1600 2160 1504
WIRE 2160 1600 2016 1600
WIRE 2160 1632 2160 1600
FLAG 1936 176 Vplus
FLAG 1920 1168 Vmin
FLAG 2048 656 out_A
FLAG 2256 240 0
FLAG 2256 32 Vmin
FLAG 2160 32 Vplus
FLAG 896 896 0
FLAG 3040 432 0
FLAG 1632 336 b1
FLAG 1616 992 b2
FLAG 1552 1200 0
FLAG 1552 112 0
FLAG 2160 1632 0
FLAG 912 720 stim
FLAG 2112 1264 shunt
FLAG 896 1104 0
FLAG 960 960 gnd1
FLAG 1312 608 Vmin
FLAG 1312 704 Vplus
FLAG 1136 640 stim
FLAG 1840 1280 Vplus
FLAG 1840 1600 Vmin
FLAG 1600 1264 fb
FLAG 1424 1376 0
FLAG 1504 1344 0
FLAG 2304 416 Vplus
FLAG 2304 944 vmin
FLAG 2048 1072 0
FLAG 2048 512 0
FLAG 2048 816 0
FLAG 1472 656 opOut1
SYMBOL EIT_Semiconductors\\npn 1664 288 R0
SYMATTR InstName T2
SYMATTR Value BC547B
SYMBOL EIT_Semiconductors\\pnp 1664 1040 M180
SYMATTR InstName T3
SYMATTR Value BC857C
SYMBOL res 1856 416 M0
WINDOW 3 -23 125 VLeft 2
SYMATTR InstName R6
SYMATTR Value {bias*2.8}
SYMBOL res 1824 784 R0
SYMATTR InstName R7
SYMATTR Value {bias*0.3}
SYMBOL res 1536 400 R0
SYMATTR InstName R8
SYMATTR Value {bias_b}
SYMBOL res 1568 816 M0
SYMATTR InstName R9
SYMATTR Value {bias_b}
SYMBOL diode 1536 544 R0
WINDOW 3 73 21 VRight 2
SYMATTR Value 1N4148
SYMATTR InstName D2
SYMBOL diode 1536 720 R0
SYMATTR InstName D3
SYMATTR Value 1N4148
SYMBOL res 2144 816 R0
SYMATTR InstName Rload1
SYMATTR Value 1.5
SYMBOL ind 2032 704 R0
SYMATTR InstName L1
SYMATTR Value 170f
SYMATTR SpiceLine Rpar=1meg Cpar=100p
SYMBOL source-V 2160 64 R0
WINDOW 123 0 0 Left 2
WINDOW 39 0 0 Left 2
WINDOW 3 -87 92 Left 2
SYMATTR Value {vsup}
SYMATTR InstName V3
SYMBOL source-V 2256 64 R0
WINDOW 123 0 0 Left 2
WINDOW 39 0 0 Left 2
WINDOW 3 -72 98 Left 2
SYMATTR Value {-vsup}
SYMATTR InstName V4
SYMBOL source-V 896 784 R0
WINDOW 123 58 89 Left 2
WINDOW 39 0 0 Left 2
WINDOW 3 -157 113 Left 2
SYMATTR Value2 AC 1
SYMATTR Value PULSE(0 1 100u 20n 20n 5m 10m)
SYMATTR InstName V5
SYMBOL res 1536 1008 R0
SYMATTR InstName R10
SYMATTR Value 1m
SYMBOL res 1536 192 R0
SYMATTR InstName R11
SYMATTR Value 1m
SYMBOL source-I 1552 192 R180
WINDOW 0 29 73 Left 2
WINDOW 3 29 17 Left 2
WINDOW 123 0 0 Left 2
WINDOW 39 0 0 Left 2
SYMATTR InstName I2
SYMATTR Value {IK1}
SYMBOL source-I 1552 1200 R180
WINDOW 0 29 73 Left 2
WINDOW 3 29 17 Left 2
WINDOW 123 0 0 Left 2
WINDOW 39 0 0 Left 2
SYMATTR InstName I3
SYMATTR Value {Ik1}
SYMBOL res 2144 1408 R0
SYMATTR InstName R12
SYMATTR Value 0.05
SYMBOL res 1920 544 R0
SYMATTR InstName R13
SYMATTR Value {Rs}
SYMBOL res 1920 656 R0
SYMATTR InstName R14
SYMATTR Value {Rs}
SYMBOL source-V 896 976 R0
WINDOW 123 0 0 Left 2
WINDOW 39 0 0 Left 2
SYMATTR InstName V6
SYMATTR Value 1µ
SYMBOL MJ11016G 1984 384 R0
SYMATTR InstName U6
SYMBOL MJ11015G 1984 1040 M180
SYMATTR InstName U7
SYMBOL res 2288 672 R0
SYMATTR InstName R22
SYMATTR Value 1
SYMBOL cap 2288 784 R0
SYMATTR InstName C3
SYMATTR Value 10n
SYMBOL Opamps\\LT1995 1840 1440 M0
SYMATTR InstName U2
SYMBOL Opamps\\LT1797 1312 720 M180
SYMATTR InstName U3
SYMBOL res 1120 768 R270
WINDOW 0 25 56 VTop 2
WINDOW 3 7 56 VBottom 2
SYMATTR InstName R3
SYMATTR Value 1k
SYMBOL res 1248 736 M90
WINDOW 0 7 56 VBottom 2
WINDOW 3 25 56 VTop 2
SYMATTR InstName R4
SYMATTR Value 100k
SYMBOL cap 1280 848 R270
WINDOW 0 32 32 VTop 2
WINDOW 3 0 32 VBottom 2
SYMATTR InstName C1
SYMATTR Value 2.2n
SYMBOL crtl-V-V 1424 1264 M0
SYMATTR InstName E1
SYMATTR Value -1
SYMBOL res 2320 640 R180
WINDOW 0 36 76 Left 2
WINDOW 3 36 40 Left 2
SYMATTR InstName R2
SYMATTR Value 1
SYMBOL cap 2320 528 R180
WINDOW 0 24 64 Left 2
WINDOW 3 24 8 Left 2
SYMATTR InstName C2
SYMATTR Value 10n
SYMBOL ind 2144 704 R0
SYMATTR InstName L2
SYMATTR Value 170µ
SYMATTR SpiceLine Rpar=1meg Cpar=100p
SYMBOL MJ11016G 1872 352 R0
SYMATTR InstName U1
SYMBOL MJ11015G 1872 976 M180
SYMATTR InstName U4
SYMBOL res 1136 656 R270
WINDOW 0 25 56 VTop 2
WINDOW 3 7 56 VBottom 2
SYMATTR InstName R1
SYMATTR Value 1m
SYMBOL cap 1792 448 M0
SYMATTR InstName C6
SYMATTR Value 10p
SYMBOL cap 1792 816 M0
SYMATTR InstName C7
SYMATTR Value 10p
TEXT 1256 296 Left 2 ;Vp=25 Vm=-25 Ilim=20m
TEXT 896 120 Left 2 !.param Cfb=100f\n.param Kpr = 10\n.param Ik1 = 3m\n.param bias = 25\n.param bias_b = 100\n.param Rs = 10m\n.param vsup = 30\n.param poti = 10k\n.param set = 0.5\n.param Rll = 5k\n.param FT = 10meg
TEXT 2024 320 Left 2 ;.dc V5 -2 2 0.01
TEXT 1208 480 Left 2 ;.step param Cfb 4n 1n -1n
TEXT 2050 280 Left 2 !;tran 20m
TEXT 738 1608 Left 2 !;tran 15m
TEXT 736 1628 Left 2 !.tran 20m
