Version 4
SHEET 1 880 680
WIRE -1344 -1472 -1344 -1888
WIRE -1344 -1472 -1392 -1472
WIRE -1264 -1472 -1344 -1472
WIRE -1104 -1472 -1216 -1472
WIRE -1008 -1472 -1104 -1472
WIRE -944 -1472 -1008 -1472
WIRE -816 -1472 -896 -1472
WIRE -656 -1472 -816 -1472
WIRE -1216 -1456 -1216 -1472
WIRE -896 -1456 -896 -1472
WIRE -1264 -1440 -1264 -1472
WIRE -1104 -1440 -1104 -1472
WIRE -1008 -1440 -1008 -1472
WIRE -944 -1440 -944 -1472
WIRE -1392 -1424 -1392 -1472
WIRE -816 -1424 -816 -1472
WIRE -1264 -1360 -1264 -1392
WIRE -1216 -1360 -1216 -1376
WIRE -1216 -1360 -1264 -1360
WIRE -944 -1360 -944 -1392
WIRE -896 -1360 -896 -1376
WIRE -896 -1360 -944 -1360
WIRE -1216 -1328 -1216 -1360
WIRE -1104 -1328 -1104 -1376
WIRE -1008 -1328 -1008 -1360
WIRE -896 -1328 -896 -1360
WIRE -816 -1328 -816 -1344
WIRE -1392 -1312 -1392 -1344
WIRE -1344 -1056 -1344 -1472
WIRE -1264 -1056 -1344 -1056
WIRE -1104 -1056 -1216 -1056
WIRE -1072 -1056 -1104 -1056
WIRE -960 -1056 -992 -1056
WIRE -832 -1056 -880 -1056
WIRE -736 -1056 -832 -1056
WIRE -608 -1056 -688 -1056
WIRE -480 -1056 -608 -1056
WIRE -448 -1056 -480 -1056
WIRE -1216 -1040 -1216 -1056
WIRE -688 -1040 -688 -1056
WIRE -1264 -1024 -1264 -1056
WIRE -1104 -1024 -1104 -1056
WIRE -832 -1024 -832 -1056
WIRE -736 -1024 -736 -1056
WIRE -608 -1008 -608 -1056
WIRE -1264 -944 -1264 -976
WIRE -1216 -944 -1216 -960
WIRE -1216 -944 -1264 -944
WIRE -1104 -944 -1104 -960
WIRE -736 -944 -736 -976
WIRE -688 -944 -688 -960
WIRE -688 -944 -736 -944
WIRE -1216 -912 -1216 -944
WIRE -1104 -912 -1104 -944
WIRE -832 -912 -832 -960
WIRE -688 -912 -688 -944
WIRE -608 -912 -608 -928
WIRE -1344 -752 -1344 -1056
WIRE -592 -752 -1344 -752
WIRE -512 -752 -592 -752
WIRE -1344 -656 -1344 -752
WIRE -1328 -656 -1344 -656
WIRE -1216 -656 -1248 -656
WIRE -1104 -656 -1136 -656
WIRE -1088 -656 -1104 -656
WIRE -1088 -624 -1088 -656
WIRE -592 -608 -592 -752
WIRE -512 -608 -592 -608
WIRE -352 -608 -416 -608
WIRE -320 -608 -352 -608
WIRE -1088 -496 -1088 -560
WIRE -592 -448 -592 -608
WIRE -512 -448 -592 -448
WIRE -352 -448 -416 -448
WIRE -320 -448 -352 -448
WIRE -1344 -384 -1344 -656
WIRE -1328 -384 -1344 -384
WIRE -1216 -384 -1248 -384
WIRE -1088 -384 -1136 -384
WIRE -1088 -352 -1088 -384
WIRE -1088 -224 -1088 -288
WIRE -960 -144 -1152 -144
WIRE -1152 -112 -1152 -144
WIRE -1344 -96 -1344 -384
WIRE -1200 -96 -1344 -96
WIRE -1200 -48 -1216 -48
WIRE -1216 -16 -1216 -48
WIRE -1152 -16 -1152 -32
WIRE -1152 -16 -1216 -16
WIRE -1152 0 -1152 -16
FLAG -1104 -1328 0
FLAG -1216 -1328 0
FLAG -896 -1328 0
FLAG -1008 -1328 0
FLAG -816 -1328 0
FLAG -1392 -1312 0
FLAG -1088 -224 0
FLAG -1216 -912 0
FLAG -688 -912 0
FLAG -1104 -912 0
FLAG -608 -912 0
FLAG -1152 0 0
FLAG -1088 -496 0
FLAG -832 -912 0
FLAG -352 -608 pt2sym
FLAG -480 -1056 pt2
FLAG -1104 -656 disk
FLAG -352 -448 pt3sym
SYMBOL res -992 -1344 R180
WINDOW 0 36 76 Left 2
WINDOW 3 36 40 Left 2
SYMATTR InstName R1
SYMATTR Value 1
SYMBOL cap -1120 -1440 R0
SYMATTR InstName C1
SYMATTR Value {T}
SYMBOL g -1216 -1472 R0
SYMATTR InstName G1
SYMATTR Value {gain}
SYMBOL g -896 -1472 R0
SYMATTR InstName G2
SYMATTR Value 1
SYMBOL res -832 -1440 R0
SYMATTR InstName R2
SYMATTR Value 1
SYMBOL voltage -1392 -1440 R0
WINDOW 3 -424 57 Left 2
WINDOW 123 0 0 Left 2
WINDOW 39 0 0 Left 2
SYMATTR Value PULSE(-1 1 100u 10n 10n 10m 20m)
SYMATTR InstName V1
SYMBOL res -1120 -400 R90
WINDOW 0 0 56 VBottom 2
WINDOW 3 32 56 VTop 2
SYMATTR InstName R3
SYMATTR Value 20
SYMBOL ind -1232 -400 R90
WINDOW 0 5 56 VBottom 2
WINDOW 3 32 56 VTop 2
SYMATTR InstName L1
SYMATTR Value 10m
SYMBOL cap -1104 -352 R0
SYMATTR InstName C2
SYMATTR Value 1µ
SYMBOL res -1088 -928 R180
WINDOW 0 36 76 Left 2
WINDOW 3 36 40 Left 2
SYMATTR InstName R4
SYMATTR Value 1
SYMBOL g -1216 -1056 R0
WINDOW 3 11 101 Left 2
SYMATTR Value {k}
SYMATTR InstName G3
SYMBOL g -688 -1056 R0
SYMATTR InstName G4
SYMATTR Value 1
SYMBOL res -624 -1024 R0
SYMATTR InstName R5
SYMATTR Value 1
SYMBOL ind -864 -1072 R90
WINDOW 0 5 56 VBottom 2
WINDOW 3 32 56 VTop 2
SYMATTR InstName L2
SYMATTR Value {L}
SYMBOL e -1152 -128 R0
SYMATTR InstName E1
SYMATTR Value Laplace=1/(1+(20*1e-6-10e-3*1e-6)*s+10e-3*1e-6*s**2)
SYMBOL res -1232 -672 R90
WINDOW 0 0 56 VBottom 2
WINDOW 3 32 56 VTop 2
SYMATTR InstName R6
SYMATTR Value 1.8
SYMBOL ind -1120 -672 R90
WINDOW 0 5 56 VBottom 2
WINDOW 3 32 56 VTop 2
SYMATTR InstName L3
SYMATTR Value 2.888m
SYMBOL cap -1104 -624 R0
SYMATTR InstName C3
SYMATTR Value 88µ
SYMBOL cap -848 -1024 R0
WINDOW 3 25 58 Left 2
SYMATTR Value {C}
SYMATTR InstName C4
SYMBOL res -976 -1072 R90
WINDOW 0 0 56 VBottom 2
WINDOW 3 32 56 VTop 2
SYMATTR InstName R7
SYMATTR Value {R}
SYMBOL pt2 -464 -608 R0
SYMATTR Value T=500us d=120m
SYMATTR InstName U1
SYMBOL pt2 -464 -448 R0
SYMATTR Value T=100us d={Dd}
SYMATTR InstName U2
TEXT -1296 -1600 Left 2 !;.param T=2m\n.param gain=0.8
TEXT -1064 -1520 Left 2 ;PT1
TEXT -1816 -904 Left 2 !.tran 50m
TEXT -952 -1104 Left 2 ;PT2 test
TEXT -1304 -1208 Left 2 !.param T=100e-6\n.param d=99.95e-3\n.param k=1
TEXT -1032 -664 Left 2 ;d=C*(R-L)/(2*sqrt(L*C))\nT=sqrt(L*C)\nd=99.95e-3\nT=100e-6
TEXT -1088 -936 Left 2 !.param L=1\n.param C={T**2/L}\n.param R={2*d*sqrt(L*C)/C+L}
TEXT -264 -880 Left 2 !.include PT2.sub
TEXT -576 -336 Left 2 !.step param Dd  50m  100m  10m
RECTANGLE Normal -752 -1280 -1304 -1544 2
RECTANGLE Normal -544 -800 -1304 -1128 2
