Version 4
SHEET 1 2020 852
WIRE 144 -368 96 -368
WIRE 176 -368 144 -368
WIRE 96 -320 96 -368
WIRE -32 -304 -48 -304
WIRE 16 -304 -32 -304
WIRE 16 -256 0 -256
WIRE 0 -224 0 -256
WIRE 96 -208 96 -240
WIRE 1360 -192 1360 -304
WIRE 160 -144 112 -144
WIRE 192 -144 160 -144
WIRE 624 -112 608 -112
WIRE 704 -112 624 -112
WIRE 800 -112 784 -112
WIRE 816 -112 800 -112
WIRE 928 -112 896 -112
WIRE 1120 -112 1072 -112
WIRE 1232 -112 1200 -112
WIRE 112 -96 112 -144
WIRE -32 -80 -32 -304
WIRE 32 -80 -32 -80
WIRE 800 -64 800 -112
WIRE 832 -64 800 -64
WIRE 1536 -64 1456 -64
WIRE 928 -48 928 -112
WIRE 928 -48 896 -48
WIRE 976 -48 928 -48
WIRE 1072 -48 1072 -112
WIRE 1072 -48 1056 -48
WIRE 1104 -48 1072 -48
WIRE 1456 -48 1456 -64
WIRE 32 -32 16 -32
WIRE 704 -32 656 -32
WIRE 800 -32 784 -32
WIRE 832 -32 800 -32
WIRE 1232 -32 1232 -112
WIRE 1232 -32 1168 -32
WIRE 1248 -32 1232 -32
WIRE 1360 -32 1360 -128
WIRE 1360 -32 1328 -32
WIRE 1376 -32 1360 -32
WIRE 1536 -32 1536 -64
WIRE 1568 -32 1536 -32
WIRE 1584 -32 1568 -32
WIRE 1680 -32 1664 -32
WIRE 1712 -32 1680 -32
WIRE 1840 -32 1792 -32
WIRE 1920 -32 1840 -32
WIRE 1968 -32 1920 -32
WIRE 2016 -32 1968 -32
WIRE 1104 -16 1072 -16
WIRE 16 0 16 -32
WIRE 800 0 800 -32
WIRE 1680 0 1680 -32
WIRE 1840 0 1840 -32
WIRE 1920 0 1920 -32
WIRE 112 16 112 -16
WIRE 1376 32 1376 16
WIRE 1360 64 1360 -32
WIRE 1456 64 1456 32
WIRE 800 112 800 80
WIRE 1680 112 1680 64
WIRE 1840 112 1840 64
WIRE 1920 112 1920 80
WIRE -32 128 -32 -80
WIRE 208 128 -32 128
WIRE 1360 176 1360 128
WIRE 656 240 656 -32
WIRE 1568 240 656 240
WIRE -32 256 -32 128
WIRE 2016 256 2016 -32
WIRE 2016 256 1648 256
WIRE -32 368 -32 336
WIRE 80 480 16 480
WIRE 112 480 80 480
WIRE 112 512 112 480
WIRE 16 560 16 480
WIRE 112 608 112 592
WIRE 192 608 112 608
WIRE 320 608 272 608
WIRE 352 608 320 608
WIRE 400 608 352 608
WIRE 16 656 16 640
WIRE 112 672 112 608
WIRE 320 672 320 608
WIRE 400 672 400 608
WIRE 112 784 112 736
WIRE 320 784 320 736
WIRE 400 784 400 752
FLAG -32 368 0
FLAG 400 784 0
FLAG 320 784 0
FLAG 112 784 0
FLAG 16 0 0
FLAG 112 16 0
FLAG 160 -144 lap
FLAG 352 608 network
FLAG 0 -224 0
FLAG 96 -208 0
FLAG 144 -368 lap2
FLAG 16 656 0
FLAG 1920 112 0
FLAG 1840 112 0
FLAG 1680 112 0
FLAG 80 480 in
FLAG 800 112 0
FLAG 624 -112 in
FLAG 1072 -16 0
FLAG 1456 64 0
FLAG 1376 32 0
FLAG 1568 320 0
FLAG 1648 304 0
FLAG 1360 176 0
FLAG 1568 -32 X
FLAG 1968 -32 Y
SYMBOL source-V -32 240 R0
WINDOW 123 28 109 Left 0
WINDOW 39 0 0 Left 0
SYMATTR InstName V1
SYMATTR Value PULSE(0 1 10m)
SYMATTR Value2 AC 1
SYMBOL res 96 496 R0
SYMATTR InstName R1
SYMATTR Value 12k
SYMBOL res 176 624 R270
WINDOW 0 25 56 VTop 0
WINDOW 3 7 56 VBottom 0
SYMATTR InstName R2
SYMATTR Value 12k
SYMBOL cap 96 672 R0
SYMATTR InstName C1
SYMATTR Value 220n
SYMBOL cap 304 672 R0
SYMATTR InstName C2
SYMATTR Value 220n
SYMBOL crtl-V-V 112 -112 R0
SYMATTR InstName E1
SYMATTR Value laplace=169*(1/(s+145)-1/(s+992))
SYMBOL crtl-V-V 96 -336 R0
SYMATTR InstName E2
SYMATTR Value laplace=1.166/(6.9e-3*s+1)-0.17/(1e-3*s+1)
SYMBOL source-V 16 544 R0
WINDOW 3 -62 -56 VRight 0
WINDOW 123 28 109 Left 0
WINDOW 39 0 0 Left 0
SYMATTR InstName V2
SYMATTR Value PULSE(1 2 0 1u 1u 16m 32m)
SYMATTR Value2 AC 1
SYMBOL res 1568 -16 R270
WINDOW 0 25 56 VTop 0
WINDOW 3 7 56 VBottom 0
SYMATTR InstName R4
SYMATTR Value 12k
SYMBOL res 1696 -16 R270
WINDOW 0 25 56 VTop 0
WINDOW 3 7 56 VBottom 0
SYMATTR InstName R5
SYMATTR Value 12k
SYMBOL cap 1664 0 R0
SYMATTR InstName C3
SYMATTR Value 220n
SYMBOL cap 1824 0 R0
SYMATTR InstName C4
SYMATTR Value 220n
SYMBOL EIT_Semiconductors\\op_3 1136 -32 R0
WINDOW 123 -94 108 Left 0
WINDOW 3 -158 82 Left 0
SYMATTR InstName U1
SYMATTR Value Vp=15 Vm=-15 Ilim=2
SYMBOL res 1072 -64 R90
WINDOW 0 7 56 VBottom 0
WINDOW 3 30 66 VTop 0
SYMATTR InstName R7
SYMATTR Value {Rf/Kp}
SYMBOL res 1216 -128 R90
WINDOW 0 7 56 VBottom 0
WINDOW 3 25 56 VTop 0
SYMATTR InstName R8
SYMATTR Value {Rf}
SYMBOL EIT_Semiconductors\\op_3 864 -48 R0
WINDOW 123 -9 190 Left 0
WINDOW 3 -21 161 Left 0
SYMATTR InstName U2
SYMATTR Value Vp=10 Vm=-10 Ilim=2
SYMBOL res 688 -96 R270
WINDOW 0 25 56 VTop 0
WINDOW 3 7 56 VBottom 0
SYMATTR InstName R9
SYMATTR Value 1k
SYMBOL res 688 -16 R270
WINDOW 0 25 56 VTop 0
WINDOW 3 7 56 VBottom 0
SYMATTR InstName R10
SYMATTR Value 1k
SYMBOL res 784 -16 R0
SYMATTR InstName R11
SYMATTR Value 1k
SYMBOL res 800 -96 R270
WINDOW 0 25 56 VTop 0
WINDOW 3 57 104 VBottom 0
SYMATTR InstName R12
SYMATTR Value 1k
SYMBOL crtl-V-V 1456 -64 R0
SYMATTR InstName E3
SYMATTR Value {Aext}
SYMBOL crtl-V-V 1568 224 M0
SYMATTR InstName E4
SYMATTR Value 1
SYMBOL schottky 1376 -128 R180
WINDOW 0 24 72 Left 0
WINDOW 3 24 0 Left 0
SYMATTR InstName D1
SYMBOL schottky 1376 128 R180
WINDOW 0 24 72 Left 0
WINDOW 3 24 0 Left 0
SYMATTR InstName D2
SYMBOL source-Vmarker 1360 -304 R0
SYMATTR Value V=3.3
SYMATTR InstName U3
SYMBOL res 1232 -16 R270
WINDOW 0 25 56 VTop 0
WINDOW 3 7 56 VBottom 0
SYMATTR InstName R6
SYMATTR Value 100
TEXT 740 -288 Left 0 !.ac oct 100 1 1meg
TEXT 96 64 Left 0 ;laplace=(1.742e42)/(3.046e40*s+5.542e37*s**2+2.091e42)
TEXT 738 -256 Left 0 ;.tran 70m
TEXT 824 416 Left 0 !.param Rf=100k\n.param Kp=5
TEXT 824 352 Left 0 ;.step param Kp list 1 2 4 8 200
TEXT 1120 -280 Left 0 !.param Aext=10\n;.step param Aext list 1 2 10
