Version 4
SHEET 1 1940 796
WIRE 1216 -496 1216 -544
WIRE 1216 -448 1216 -496
WIRE 1312 -368 1280 -368
WIRE 1424 -368 1312 -368
WIRE 1312 -336 1312 -368
WIRE 1424 -336 1424 -368
WIRE 896 -288 896 -336
WIRE 640 -240 640 -288
WIRE 896 -240 896 -288
WIRE 1216 -224 1216 -288
WIRE 1312 -224 1312 -256
WIRE 1312 -224 1216 -224
WIRE 1312 -192 1312 -224
WIRE 736 -160 704 -160
WIRE 992 -160 960 -160
WIRE 1040 -160 992 -160
WIRE 1216 -144 1216 -224
WIRE 1248 -144 1216 -144
WIRE 736 -128 736 -160
WIRE 992 -128 992 -160
WIRE -512 -96 -512 -144
WIRE -416 -96 -416 -144
WIRE -128 -48 -144 -48
WIRE -48 -48 -48 -80
WIRE -48 -48 -128 -48
WIRE 1040 -48 1040 -160
WIRE 256 -32 256 -80
WIRE 640 -32 640 -80
WIRE 736 -32 736 -48
WIRE 736 -32 640 -32
WIRE 896 -32 896 -80
WIRE 992 -32 992 -48
WIRE 992 -32 896 -32
WIRE 1312 -32 1312 -96
WIRE 1424 -32 1424 -256
WIRE 1424 -32 1312 -32
WIRE -48 -16 -48 -48
WIRE 256 0 256 -32
WIRE 896 0 896 -32
WIRE -512 32 -512 -16
WIRE -464 32 -512 32
WIRE -416 32 -416 -16
WIRE -416 32 -464 32
WIRE -144 32 -144 -48
WIRE -112 32 -144 32
WIRE 640 32 640 -32
WIRE 640 32 528 32
WIRE 1312 32 1312 -32
WIRE -464 64 -464 32
WIRE 528 64 528 32
WIRE 640 64 640 32
WIRE 896 96 896 64
WIRE 992 96 896 96
WIRE 1040 96 1040 32
WIRE 1040 96 992 96
WIRE 256 112 256 64
WIRE 1312 128 1312 112
WIRE -48 144 -48 80
WIRE 640 160 640 144
WIRE 528 176 528 144
WIRE 992 176 992 96
WIRE 992 272 992 256
FLAG -48 -160 0
FLAG -48 144 0
FLAG 256 -160 0
FLAG 256 112 0
FLAG -128 -48 bc
FLAG 256 -32 d
FLAG 640 -288 Vplus
FLAG 640 160 0
FLAG 896 -288 Vplus
FLAG 992 272 0
FLAG -464 64 0
FLAG -416 -144 Vmin
FLAG -512 -144 Vplus
FLAG 1216 -496 Vplus
FLAG 1312 128 0
FLAG 1216 -224 bcl
FLAG 1920 160 0
FLAG 528 176 0
SYMBOL source-I -48 -80 R180
WINDOW 0 29 73 Left 0
WINDOW 3 29 17 Left 0
WINDOW 123 0 0 Left 0
WINDOW 39 0 0 Left 0
SYMATTR InstName I1
SYMATTR Value 4m
SYMBOL EIT_Semiconductors\\npn -112 -16 R0
SYMATTR InstName Q1
SYMATTR Value BC547B
SYMBOL source-I 256 -80 R180
WINDOW 0 29 73 Left 0
WINDOW 3 29 17 Left 0
WINDOW 123 0 0 Left 0
WINDOW 39 0 0 Left 0
SYMATTR InstName I2
SYMATTR Value 1m
SYMBOL diode 240 0 R0
SYMATTR InstName D1
SYMATTR Value 1N4148
SYMBOL LM334 640 -160 R0
SYMATTR InstName U1
SYMBOL res 720 -144 R0
SYMATTR InstName R1
SYMATTR Value {Rset}
SYMBOL res 624 48 R0
SYMATTR InstName R3
SYMATTR Value 100
SYMBOL LM334 896 -160 R0
SYMATTR InstName U2
SYMBOL res 976 -144 R0
SYMATTR InstName R4
SYMATTR Value 48.52
SYMBOL diode 880 0 R0
SYMATTR InstName D3
SYMATTR Value 1N4148
SYMBOL res 1024 -64 R0
SYMATTR InstName R5
SYMATTR Value {48.52*6.0815}
SYMBOL res 976 160 R0
SYMATTR InstName R6
SYMATTR Value 100
SYMBOL source-V -512 -112 R0
WINDOW 123 0 0 Left 0
WINDOW 39 0 0 Left 0
WINDOW 3 -87 97 Left 0
SYMATTR Value 12
SYMATTR InstName V1
SYMBOL source-V -416 -112 R0
WINDOW 123 0 0 Left 0
WINDOW 39 0 0 Left 0
WINDOW 3 19 95 Left 0
SYMATTR Value -12
SYMATTR InstName V2
SYMBOL LM334 1216 -368 R0
SYMATTR InstName U3
SYMBOL res 1296 -352 R0
SYMATTR InstName R2
SYMATTR Value 48.52
SYMBOL res 1408 -352 R0
SYMATTR InstName R7
SYMATTR Value {48.52*6.0815}
SYMBOL res 1296 16 R0
SYMATTR InstName R8
SYMATTR Value 100
SYMBOL EIT_Semiconductors\\npn 1248 -192 R0
SYMATTR InstName Q2
SYMATTR Value BC547B
SYMBOL source-V 528 48 R0
WINDOW 123 0 0 Left 0
WINDOW 39 0 0 Left 0
WINDOW 3 19 95 Left 0
SYMATTR Value 0
SYMATTR InstName V3
TEXT -144 168 Left 0 !.dc V3 0 20 0.1
TEXT -152 216 Left 0 ;.step TEMP 0 80 10
TEXT 256 -400 Left 0 !.param Rset=17.36
TEXT 96 -320 Left 0 ;.step param Rset 17.35 17.38 0.005
