Version 4
SHEET 1 1616 1384
WIRE 1120 -240 992 -240
WIRE 1200 -240 1120 -240
WIRE -80 -176 -208 -176
WIRE 240 -176 -80 -176
WIRE 368 -176 240 -176
WIRE 480 -176 368 -176
WIRE 592 -176 480 -176
WIRE 992 -176 992 -240
WIRE 1200 -176 1200 -240
WIRE -80 -144 -80 -176
WIRE 592 -144 592 -176
WIRE 1072 -128 1056 -128
WIRE 1136 -128 1072 -128
WIRE 368 -96 368 -176
WIRE 528 -96 480 -96
WIRE 480 -80 480 -96
WIRE 992 -48 992 -80
WIRE 1072 -48 1072 -128
WIRE 1072 -48 992 -48
WIRE 1200 -48 1200 -80
WIRE 592 -32 592 -48
WIRE 480 0 480 -16
WIRE 992 0 992 -48
WIRE 1200 0 1200 -48
WIRE -512 80 -576 80
WIRE -496 80 -512 80
WIRE 592 80 592 48
WIRE 624 80 592 80
WIRE 704 80 624 80
WIRE 64 96 48 96
WIRE 224 96 144 96
WIRE 368 96 368 -16
WIRE 480 96 480 80
WIRE 480 96 368 96
WIRE -576 112 -576 80
WIRE 592 128 592 80
WIRE 704 128 704 80
WIRE 1200 128 1200 80
WIRE 48 144 48 96
WIRE 992 144 992 80
WIRE 480 160 480 96
WIRE -80 192 -80 -64
WIRE -16 192 -80 192
WIRE -576 208 -576 192
WIRE -80 208 -80 192
WIRE 592 240 592 208
WIRE -304 256 -336 256
WIRE -272 256 -304 256
WIRE -192 256 -208 256
WIRE -144 256 -192 256
WIRE 704 256 704 208
WIRE 480 288 480 224
WIRE 528 288 480 288
WIRE 544 288 528 288
WIRE -544 304 -576 304
WIRE -496 304 -544 304
WIRE -576 336 -576 304
WIRE -80 368 -80 304
WIRE -80 368 -240 368
WIRE 48 368 48 240
WIRE 48 368 -80 368
WIRE 592 368 592 336
WIRE 592 368 48 368
WIRE -240 400 -240 368
WIRE 624 416 544 416
WIRE 672 416 624 416
WIRE -576 432 -576 416
WIRE 544 448 544 416
WIRE 672 496 672 416
WIRE -512 544 -576 544
WIRE -496 544 -512 544
WIRE 544 544 544 528
WIRE 544 544 512 544
WIRE 608 544 544 544
WIRE -576 576 -576 544
WIRE 544 576 544 544
WIRE 672 608 672 592
WIRE 704 608 672 608
WIRE 48 624 32 624
WIRE 80 624 48 624
WIRE 160 624 80 624
WIRE 672 624 672 608
WIRE 160 640 160 624
WIRE 544 640 512 640
WIRE -272 656 -304 656
WIRE -256 656 -272 656
WIRE 544 656 544 640
WIRE -576 672 -576 656
WIRE -304 688 -304 656
WIRE -112 720 -128 720
WIRE 0 720 -32 720
WIRE 80 736 80 624
WIRE 0 752 0 720
WIRE 48 752 0 752
WIRE 160 768 160 720
WIRE 160 768 112 768
WIRE 272 768 160 768
WIRE 368 768 272 768
WIRE 464 768 432 768
WIRE 512 768 464 768
WIRE 544 768 544 736
WIRE 544 768 512 768
WIRE 672 768 672 704
WIRE 768 768 672 768
WIRE 816 768 768 768
WIRE -304 784 -304 768
WIRE 48 784 0 784
WIRE -112 816 -128 816
WIRE 0 816 0 784
WIRE 0 816 -32 816
WIRE 80 816 80 800
WIRE 544 832 544 768
WIRE 368 864 352 864
WIRE 464 864 464 768
WIRE 464 864 432 864
WIRE 672 864 672 768
WIRE 816 864 816 768
WIRE 272 896 272 864
WIRE 544 944 544 912
WIRE 672 976 672 944
WIRE 272 992 272 976
WIRE 544 1024 544 1008
WIRE 608 1024 544 1024
WIRE 544 1040 544 1024
WIRE 816 1056 816 944
WIRE 544 1168 544 1120
WIRE 672 1168 672 1072
FLAG 704 256 0
FLAG 80 816 0
FLAG -128 720 tri
FLAG -128 816 sin
FLAG 272 768 pwm
FLAG -240 400 0
FLAG 224 96 oc
FLAG 768 768 out
FLAG -576 208 0
FLAG -576 432 0
FLAG -304 784 0
FLAG -272 656 +10V
FLAG -544 304 tri
FLAG -512 80 sin
FLAG 672 1168 0
FLAG 272 992 0
FLAG 544 1168 0
FLAG 512 768 in1
FLAG -576 672 0
FLAG -512 544 Vreff
FLAG 624 416 +10V
FLAG 48 624 +10V
FLAG 336 1152 0
FLAG 336 1072 0
FLAG 512 544 b4
FLAG 512 640 d1
FLAG 704 608 e4
FLAG -304 256 pwm
FLAG 624 80 o2
FLAG 240 -176 V+
FLAG 1200 -48 mp1
FLAG 1120 -240 V+
FLAG 992 144 oc
FLAG 1200 128 0
SYMBOL EIT_Semiconductors\\npn -16 144 R0
SYMATTR InstName Q1
SYMATTR Value PXT4401
SYMBOL res 576 -48 R0
SYMATTR InstName R1
SYMATTR Value 22
SYMBOL res 48 112 R270
WINDOW 0 25 56 VTop 2
WINDOW 3 7 56 VBottom 2
SYMATTR InstName R2
SYMATTR Value 1m
SYMBOL source-Vmarker -208 -176 R0
WINDOW 3 -73 -3 Center 2
SYMATTR Value V=10V
SYMATTR InstName U1
SYMBOL EIT_Semiconductors\\pnp 528 336 M180
SYMATTR InstName T2
SYMATTR Value BC327-40
SYMBOL source-I -80 -64 R180
WINDOW 0 29 73 Left 2
WINDOW 3 29 17 Left 2
WINDOW 123 0 0 Left 2
WINDOW 39 0 0 Left 2
SYMATTR InstName I1
SYMATTR Value 120µ
SYMBOL res 688 112 R0
SYMATTR InstName RL
SYMATTR Value 10k
SYMBOL EIT_Semiconductors\\npn 528 -144 R0
SYMATTR InstName Q2
SYMATTR Value PXT4401
SYMBOL res 576 112 R0
SYMATTR InstName R7
SYMATTR Value 22
SYMBOL EIT_Semiconductors\\npn -144 208 R0
SYMATTR InstName Q3
SYMATTR Value PXT4401
SYMBOL SBORKA\\COMPARATOR\\lm393 80 768 R0
WINDOW 38 7 29 Left 2
SYMATTR InstName U3
SYMBOL res -128 736 R270
WINDOW 0 25 56 VTop 2
WINDOW 3 7 56 VBottom 2
SYMATTR InstName R3
SYMATTR Value 100
SYMBOL res -128 832 R270
WINDOW 0 25 56 VTop 2
WINDOW 3 7 56 VBottom 2
SYMATTR InstName R4
SYMATTR Value 100
SYMBOL res 144 624 R0
SYMATTR InstName R8
SYMATTR Value 4k7
SYMBOL res 464 -192 R0
SYMATTR InstName R5
SYMATTR Value 4k7
SYMBOL res 656 608 R0
SYMATTR InstName R6
SYMATTR Value 22
SYMBOL EIT_Semiconductors\\pnp 608 1072 M180
SYMATTR InstName T1
SYMATTR Value BC327-40
SYMBOL res 800 848 R0
SYMATTR InstName RL1
SYMATTR Value 1000t
SYMBOL EIT_Semiconductors\\npn 608 496 R0
SYMATTR InstName Q4
SYMATTR Value PXT4401
SYMBOL res 656 848 R0
SYMATTR InstName R9
SYMATTR Value 22
SYMBOL source-V -576 96 R0
WINDOW 3 -46 156 Left 2
WINDOW 123 0 0 Left 2
WINDOW 39 0 0 Left 2
SYMATTR Value SINE({Vref} 2.25 25)
SYMATTR InstName V2
SYMBOL source-V -576 320 R0
WINDOW 3 -46 156 Left 2
WINDOW 123 0 0 Left 2
WINDOW 39 0 0 Left 2
SYMATTR Value PULSE({Vref-Vrm} {Vref+Vrm} 0 {1/(2*ft)} {1/(2*ft)} 0 {1/ft})
SYMATTR InstName V3
SYMBOL source-V -304 672 R0
WINDOW 3 36 62 Left 2
WINDOW 123 0 0 Left 2
WINDOW 39 0 0 Left 2
SYMATTR Value 10V
SYMATTR InstName V4
SYMBOL diode 528 576 R0
SYMATTR InstName D1
SYMATTR Value 1N4148
SYMBOL diode 528 944 R0
SYMATTR InstName D3
SYMATTR Value 1N4148
SYMBOL res 528 640 R0
SYMATTR InstName R10
SYMATTR Value 1k
SYMBOL res 528 816 R0
SYMATTR InstName R11
SYMATTR Value 1k
SYMBOL source-V 272 880 R0
WINDOW 3 -359 162 Left 2
WINDOW 123 0 0 Left 2
WINDOW 39 0 0 Left 2
SYMATTR Value PULSE(0.2 4.8 0 100n 100n {1/(2*ft)} {1/ft})
SYMATTR InstName V1
SYMBOL source-I 336 1152 R180
WINDOW 0 29 73 Left 2
WINDOW 3 29 17 Left 2
WINDOW 123 0 0 Left 2
WINDOW 39 0 0 Left 2
SYMATTR InstName I3
SYMATTR Value {Ibias}
SYMBOL res 256 880 R270
WINDOW 0 25 56 VTop 2
WINDOW 3 7 56 VBottom 2
SYMATTR InstName Ri
SYMATTR Value 4.7m
SYMBOL source-V -576 560 R0
WINDOW 3 -46 156 Left 2
WINDOW 123 0 0 Left 2
WINDOW 39 0 0 Left 2
SYMATTR Value {Vref}
SYMATTR InstName V5
SYMBOL MDB_sym\\jumperRes 400 800 R0
SYMATTR InstName U2
SYMBOL res 528 1024 R0
SYMATTR InstName R12
SYMATTR Value {Risrc}
SYMBOL res 528 432 R0
SYMATTR InstName R13
SYMATTR Value {Risrc}
SYMBOL source-Vmarker 816 1056 R0
WINDOW 3 -73 -3 Center 2
SYMATTR Value V=4V
SYMATTR InstName U4
SYMBOL res -176 240 R90
WINDOW 0 7 56 VBottom 2
WINDOW 3 25 56 VTop 2
SYMATTR InstName R14
SYMATTR Value 1k
SYMBOL diode 464 -80 R0
SYMATTR InstName D2
SYMATTR Value 1N4148
SYMBOL diode 464 160 R0
SYMATTR InstName D4
SYMATTR Value 1N4148
SYMBOL res 464 -16 R0
SYMATTR InstName R16
SYMATTR Value 2k2
SYMBOL BST62R 1056 -80 R180
SYMATTR InstName U5
SYMBOL BST62R 1136 -80 M180
SYMATTR InstName U6
SYMBOL res 976 -16 R0
SYMATTR InstName R15
SYMATTR Value 470
SYMBOL res 1184 -16 R0
SYMATTR InstName R17
SYMATTR Value 400
SYMBOL BST62R 1056 -80 R180
SYMATTR InstName U7
SYMBOL BST62R 1136 -80 M180
SYMATTR InstName U8
SYMBOL res 976 -16 R0
SYMATTR InstName R18
SYMATTR Value 470
SYMBOL res 1184 -16 R0
SYMATTR InstName R19
SYMATTR Value 400
TEXT 216 216 Left 2 !.param Ibias = 1m\n.param ft = 500\n.param Vref = {3.5+2.25}\n.param Vrm = {4.7/2}\n.param Risrc = 10k
TEXT -152 -208 Left 2 ;LM393
TEXT -184 888 Left 2 ;Comparator
TEXT -584 -114 Left 2 !.tran {40/ft}
TEXT -152 -448 Left 2 ;LDD-350 ksq\n \nPower ON with dimming: DIM ~ -Vin >3.5 ~ 8VDC or open circuit\nPower OFF : DIM ~ -Vin < 0.5VDC or short
TEXT 800 488 Left 2 ;(V(b4,d1)+V(d1,in1)-V(b4,e4))/(22)
RECTANGLE Normal 176 416 -176 -240 2
RECTANGLE Normal 248 912 -192 560 2
