Version 4
SHEET 1 880 1028
WIRE -672 0 -880 0
WIRE -544 0 -672 0
WIRE -416 0 -544 0
WIRE -672 16 -672 0
WIRE -544 96 -544 0
WIRE -672 112 -672 96
WIRE -624 112 -672 112
WIRE -880 128 -880 0
WIRE -624 160 -672 160
WIRE -416 176 -416 0
WIRE -544 192 -544 176
WIRE -496 192 -544 192
WIRE -496 240 -544 240
WIRE -880 256 -880 208
WIRE -672 288 -672 160
WIRE -544 288 -544 240
WIRE -416 288 -416 256
WIRE -672 384 -672 352
WIRE -544 384 -544 352
WIRE -416 384 -416 352
WIRE -672 400 -672 384
WIRE -544 400 -544 384
WIRE -416 400 -416 384
WIRE -672 528 -672 464
WIRE -544 528 -544 464
WIRE -416 528 -416 464
FLAG -672 528 0
FLAG -544 528 0
FLAG -416 528 0
FLAG -880 256 0
FLAG -672 384 rd
FLAG -544 384 gn
FLAG -416 384 bl
SYMBOL diode -688 400 R0
SYMATTR InstName D1
SYMATTR Value XM-LRED
SYMBOL diode -560 400 R0
SYMATTR InstName D2
SYMATTR Value XM-LGRN
SYMBOL diode -432 400 R0
SYMATTR InstName D3
SYMATTR Value XM-LBLU
SYMBOL source-I -672 96 R180
WINDOW 0 29 73 Left 2
WINDOW 3 29 17 Left 2
WINDOW 123 0 0 Left 2
WINDOW 39 0 0 Left 2
SYMATTR InstName I1
SYMATTR Value {Ia}
SYMBOL source-V -880 112 R0
WINDOW 123 0 0 Left 2
WINDOW 39 0 0 Left 2
SYMATTR InstName V1
SYMATTR Value 12
SYMBOL diode -688 288 R0
SYMATTR InstName D4
SYMATTR Value XM-LRED
SYMBOL diode -560 288 R0
SYMATTR InstName D5
SYMATTR Value XM-LGRN
SYMBOL diode -432 288 R0
SYMATTR InstName D6
SYMATTR Value XM-LBLU
SYMBOL crtl-I-I_INV -544 80 R0
SYMATTR InstName U1
SYMBOL crtl-I-I_INV -416 160 R0
SYMATTR InstName U2
TEXT 152 40 Left 2 !* Cree XLAMP XM-L White LED\n* Model valid for 150mA to 1000mA & Tj=25C\n.MODEL XM-LWHT D\n+ IS=1.52113E-11\n+ N=4.936978564\n+ RS=0.209217895\n+ XTI=50.86969482\n+ EG=2.5000\n \n* Cree XLAMP XM-L Blue LED\n* Model valid for 150mA to 1000mA & Tj=25C\n.MODEL XM-LBLU D\n+ IS=5.84635E-11\n+ N=5.220712964\n+ RS=0.228138464\n+ XTI=50.63276655\n+ EG=2.5000\n \n* Cree XLAMP XM-L Green LED\n* Model valid for 150mA to 1000mA & Tj=25C\n.MODEL XM-LGRN D\n+ IS=2.91045E-07\n+ N=8.795766407\n+ RS=0.386537629\n+ XTI=66.28627594\n+ EG=2.5000\n \n* Cree XLAMP XM-L Red LED\n* Model valid for 150mA to 1000mA & Tj=25C\n.MODEL XM-LRED D\n+ IS=1.0659E-13\n+ N=2.780597122\n+ RS=0.545421573\n+ XTI=17.9643995\n+ EG=2.1000
TEXT -956 516 Left 2 !.dc I1 0 .35 1m
TEXT -752 632 Left 2 ;V(3)*I(D3)+V(N004,3)*I(D6)+V(2)*I(D2)+V(N003,2)*I(D5)+V(1)*I(D1)+V(N002,1)*I(D4)
TEXT -848 704 Left 2 !.step param Ia 0 .35 10m
TEXT -936 568 Left 2 !.param Ia = 1
TEXT -928 624 Left 2 !.op
