Version 4
SHEET 1 880 680
WIRE 336 128 288 128
WIRE 144 144 128 144
WIRE 224 144 144 144
WIRE 320 160 288 160
FLAG 256 112 Vop
FLAG 272 192 0
FLAG 240 176 0
FLAG 320 160 out
FLAG 144 144 l33
SYMBOL EXTRA\\ExtraComparators\\LM311_TI 256 144 M0
SYMATTR InstName U1
SYMBOL source-Vmarker 336 128 M0
WINDOW 3 -72 3 Center 2
SYMATTR Value V=5
SYMATTR InstName U2
