Version 4
SHEET 1 880 680
WIRE -624 -864 -752 -864
WIRE -224 -864 -624 -864
WIRE -624 -832 -624 -864
WIRE -224 -752 -224 -864
WIRE -624 -656 -624 -752
WIRE -224 -640 -224 -656
WIRE -624 -560 -624 -576
WIRE -816 -496 -848 -496
WIRE -624 -480 -624 -496
WIRE -624 -480 -752 -480
WIRE -224 -480 -224 -560
WIRE -224 -480 -496 -480
WIRE -160 -480 -224 -480
WIRE -144 -480 -160 -480
WIRE -32 -480 -144 -480
WIRE -976 -464 -1056 -464
WIRE -864 -464 -896 -464
WIRE -816 -464 -864 -464
WIRE -624 -464 -624 -480
WIRE -224 -432 -224 -480
WIRE -32 -432 -32 -480
WIRE -1056 -416 -1056 -464
WIRE -864 -416 -864 -464
WIRE -496 -400 -496 -480
WIRE -624 -384 -624 -400
WIRE -624 -368 -624 -384
WIRE -1056 -320 -1056 -336
WIRE -224 -320 -224 -352
WIRE -496 -304 -496 -320
WIRE -32 -304 -32 -352
WIRE -624 -256 -624 -288
WIRE -560 -256 -624 -256
WIRE -624 -224 -624 -256
WIRE -624 -112 -624 -144
WIRE -624 -112 -768 -112
WIRE -496 -112 -496 -208
WIRE -496 -112 -624 -112
WIRE -224 -112 -224 -224
WIRE -224 -112 -496 -112
WIRE -864 -16 -864 -336
WIRE -144 -16 -144 -480
WIRE -144 -16 -864 -16
FLAG -624 -384 r4
FLAG -848 -496 0
FLAG -32 -304 0
FLAG -1056 -320 0
FLAG -160 -480 out
FLAG -768 -112 0
SYMBOL EIT_Semiconductors\\npn -560 -304 R0
SYMATTR InstName Q1
SYMATTR Value PXT4401
SYMBOL res -240 -656 R0
SYMATTR InstName R1
SYMATTR Value 10
SYMBOL res -512 -416 R0
SYMATTR InstName R2
SYMATTR Value 10
SYMBOL source-Vmarker -752 -864 R0
WINDOW 3 -73 -3 Center 2
SYMATTR InstName U1
SYMBOL EIT_Semiconductors\\pnp -288 -656 M180
SYMATTR InstName T1
SYMATTR Value BC327-40
SYMBOL res -640 -384 R0
SYMATTR InstName R3
SYMATTR Value 1k
SYMBOL diode -640 -560 R0
WINDOW 3 39 38 Left 2
SYMATTR InstName D1
SYMATTR Value 1N4148
SYMBOL diode -640 -464 R0
SYMATTR InstName D2
SYMATTR Value 1N4148
SYMBOL EIT_Semiconductors\\op_3 -784 -480 M180
WINDOW 123 -264 -90 Invisible 2
WINDOW 3 -604 -117 Invisible 2
SYMATTR Value2 FT={FT} SR=10
SYMATTR Value Vp={0.95*Vsup} Vm={-0.95*Vsup} Ilim=20m
SYMATTR InstName U2
SYMBOL res -640 -672 R0
SYMATTR InstName R4
SYMATTR Value 1k
SYMBOL source-I -624 -752 R180
WINDOW 0 29 73 Left 2
WINDOW 3 29 17 Left 2
WINDOW 123 0 0 Left 2
WINDOW 39 0 0 Left 2
SYMATTR InstName I1
SYMATTR Value 80µ
SYMBOL source-I -624 -144 R180
WINDOW 0 29 73 Left 2
WINDOW 3 29 17 Left 2
WINDOW 123 0 0 Left 2
WINDOW 39 0 0 Left 2
SYMATTR InstName I2
SYMATTR Value {IK1}
SYMBOL res -992 -448 R270
WINDOW 0 25 56 VTop 2
WINDOW 3 7 56 VBottom 2
SYMATTR InstName R5
SYMATTR Value 10k
SYMBOL res -880 -432 R0
SYMATTR InstName R6
SYMATTR Value 1k
SYMBOL res -48 -448 R0
SYMATTR InstName RL1
SYMATTR Value 10k
SYMBOL source-V -1056 -432 R0
WINDOW 123 0 0 Left 2
WINDOW 39 0 0 Left 2
SYMATTR InstName V1
SYMATTR Value SINE(1 1 50)
SYMBOL EIT_Semiconductors\\npn -288 -320 R0
SYMATTR InstName Q2
SYMATTR Value PXT4401
SYMBOL res -240 -448 R0
SYMATTR InstName R7
SYMATTR Value 10
TEXT -984 -752 Left 2 !.param Ik = 4mA
TEXT -696 -896 Left 2 ;LM393
RECTANGLE Normal -400 -64 -720 -928 2
