Version 4
SHEET 1 880 680
WIRE 304 64 304 48
WIRE 48 80 16 80
WIRE 64 80 48 80
WIRE 304 144 208 144
WIRE 208 160 208 144
WIRE 304 224 304 144
WIRE 208 256 208 240
WIRE 272 256 208 256
WIRE 208 304 208 256
WIRE 208 400 208 384
WIRE 304 400 304 288
FLAG 304 400 0
FLAG 208 400 0
FLAG 304 48 Vop
FLAG 48 80 Vop
SYMBOL SBORKA\\REF\\tlv431_on 288 224 R0
SYMATTR InstName U1
SYMBOL res 288 48 R0
SYMATTR InstName R1
SYMATTR Value 590
SYMBOL res 192 288 R0
SYMATTR InstName R2
SYMATTR Value 5.6k
SYMBOL res 192 144 R0
WINDOW 3 -159 57 Left 2
SYMATTR InstName R3
SYMATTR Value {18k+set*10k}
SYMBOL source-Vmarker 16 80 R0
WINDOW 3 -61 -2 Center 2
SYMATTR Value V={Vop}
SYMATTR InstName U2
TEXT 584 32 Left 2 !.param fc = 50
TEXT 496 200 Left 2 !.param set = 1
TEXT 496 256 Left 2 !.step param set 0 1 .025
TEXT -112 0 Left 2 !.param Vop = 12V
