Version 4
SHEET 1 1056 964
WIRE 304 144 304 128
WIRE 688 160 640 160
WIRE 704 160 688 160
WIRE 304 240 304 224
WIRE 304 240 224 240
WIRE 464 240 304 240
WIRE 464 272 464 240
WIRE 144 288 144 240
WIRE 304 288 304 240
WIRE 560 320 528 320
WIRE 656 320 640 320
WIRE 224 336 224 240
WIRE 224 336 208 336
WIRE 240 336 224 336
WIRE 144 416 144 384
WIRE 304 416 304 384
WIRE 464 432 464 368
WIRE 752 592 576 592
WIRE 112 656 112 608
WIRE 112 656 64 656
WIRE 160 656 112 656
WIRE 176 656 160 656
WIRE 256 656 240 656
WIRE 304 656 304 608
WIRE 304 656 256 656
WIRE 352 656 304 656
WIRE 752 656 672 656
WIRE 64 672 64 656
WIRE 160 672 160 656
WIRE 256 672 256 656
WIRE 352 672 352 656
WIRE 576 704 576 592
WIRE 672 704 672 656
WIRE 64 752 64 736
WIRE 160 752 160 736
WIRE 256 752 256 736
WIRE 352 752 352 736
WIRE 576 800 576 784
WIRE 672 800 672 784
WIRE 64 832 64 816
WIRE 256 832 256 816
WIRE 160 864 160 832
WIRE 352 864 352 832
FLAG 144 416 0
FLAG 304 416 0
FLAG 304 128 V+
FLAG 464 432 0
FLAG 656 320 sink_off
FLAG 144 240 sink
FLAG 112 96 0
FLAG 576 800 0
FLAG 752 656 sink_off
FLAG 752 592 source_off
FLAG 64 832 0
FLAG 160 864 0
FLAG 112 608 src
FLAG 672 800 0
FLAG 304 608 sink
FLAG 352 864 V+
FLAG 256 832 V+
FLAG 688 160 V+
SYMBOL EIT_Semiconductors\\npn 208 288 M0
SYMATTR InstName Q1
SYMATTR Value 2N3904
SYMBOL EIT_Semiconductors\\npn 240 288 R0
SYMATTR InstName Q2
SYMATTR Value 2N3904
SYMBOL res 320 128 M0
SYMATTR InstName R1
SYMATTR Value 2k
SYMBOL EIT_Semiconductors\\npn 528 272 M0
SYMATTR InstName Q3
SYMATTR Value 2N3904
SYMBOL res 656 336 M270
WINDOW 0 25 56 VTop 2
WINDOW 3 7 56 VBottom 2
SYMATTR InstName R2
SYMATTR Value 10k
SYMBOL source-V 576 688 M0
WINDOW 3 -404 173 Left 2
WINDOW 123 0 0 Left 2
WINDOW 39 0 0 Left 2
SYMATTR Value PULSE(0 {Vplus} 0 100n 100n {1/(2*fp)-Td/2})
SYMATTR InstName V1
SYMBOL cap 48 752 R0
SYMATTR InstName C1
SYMATTR Value 500n
SYMBOL res 144 736 R0
SYMATTR InstName R3
SYMATTR Value 220
SYMBOL MDB_sym\\jumperRes 416 704 R90
SYMATTR InstName U1
SYMBOL cap 240 752 R0
SYMATTR InstName C3
SYMATTR Value 500n
SYMBOL res 336 736 R0
SYMATTR InstName R5
SYMATTR Value 220
SYMBOL MDB_sym\\jumperRes 208 592 R0
SYMATTR InstName U3
SYMBOL source-V 672 688 M0
WINDOW 3 -292 228 Left 2
WINDOW 123 0 0 Left 2
WINDOW 39 0 0 Left 2
SYMATTR Value PULSE({Vplus} 0 0 100n 100n {1/(2*fp)+Td/2})
SYMATTR InstName V2
SYMBOL source-Vmarker 640 160 R0
SYMATTR Value V={Vplus}
SYMATTR InstName U2
TEXT 48 944 Left 2 !.tran 10m
TEXT 784 320 Left 2 !.param Vplus = 10V\n.param fp = 100\n.param Tp = 1/fp\n;.param Td = 0.05*Tp\n.param Td = 100u
