Version 4
SHEET 1 2288 1956
WIRE -752 -112 -800 -112
WIRE -736 -112 -752 -112
WIRE -736 -96 -736 -112
WIRE -1040 -16 -1056 -16
WIRE -1008 -16 -1040 -16
WIRE -736 -16 -736 -32
WIRE -736 0 -736 -16
WIRE -1056 16 -1056 -16
WIRE -736 96 -736 64
WIRE -704 96 -736 96
WIRE -1008 160 -1088 160
WIRE -976 160 -1008 160
WIRE -896 176 -912 176
WIRE -800 176 -816 176
WIRE -784 176 -800 176
WIRE -1088 192 -1088 160
WIRE -976 192 -1008 192
WIRE -1008 240 -1008 192
WIRE -896 240 -1008 240
WIRE -768 240 -816 240
WIRE -736 240 -736 192
WIRE -736 240 -768 240
WIRE -736 256 -736 240
WIRE -1088 304 -1088 272
WIRE -736 368 -736 336
FLAG -736 368 0
FLAG -1088 304 0
FLAG -752 -112 V_LED_R
FLAG -736 -16 rd
FLAG -1008 160 V+
FLAG -768 240 shunt
FLAG -704 96 D_rd
FLAG -800 176 G
FLAG -1008 192 V-
FLAG -1056 80 0
FLAG -1040 -16 V+common
FLAG -864 -112 V+common
FLAG -1088 160 Vset
SYMBOL EIT_Semiconductors\\op_3 -944 176 M180
WINDOW 0 -5 38 Left 2
WINDOW 123 -17 69 Invisible 2
WINDOW 3 -16 43 Invisible 2
SYMATTR InstName U1
SYMBOL EIT_Semiconductors\\nmos -784 96 R0
SYMATTR InstName M1
SYMATTR Value IRF7401
SYMBOL res -912 192 R270
WINDOW 0 25 56 VTop 2
WINDOW 3 7 56 VBottom 2
SYMATTR InstName Rg
SYMATTR Value 10
SYMBOL res -752 240 R0
SYMATTR InstName Rshunt
SYMATTR Value 10
SYMBOL source-V -1088 176 R0
WINDOW 3 -27 166 Left 2
WINDOW 123 0 0 Left 2
WINDOW 39 0 0 Left 2
SYMATTR Value PULSE(0 3.5 0 500m 1u 1u 500m)
SYMATTR InstName V1
SYMBOL res -800 224 R90
WINDOW 0 7 56 VBottom 2
WINDOW 3 25 56 VTop 2
SYMATTR InstName R3
SYMATTR Value 10k
SYMBOL diode -752 0 R0
SYMATTR InstName D1
SYMATTR Value XM-LRED
SYMBOL diode -752 -96 R0
SYMATTR InstName D2
SYMATTR Value XM-LRED
SYMBOL MDB_sym\\source-Vs -1056 -16 R0
WINDOW 123 0 0 Left 2
WINDOW 39 0 0 Left 2
SYMATTR InstName V5
SYMATTR Value {Vled}
SYMBOL MDB_sym\\jumperRes -832 -176 R0
SYMATTR InstName U2
TEXT -1120 376 Left 2 !.tran 1.2
TEXT 272 -312 Left 2 !* Cree XLAMP XM-L White LED\n* Model valid for 150mA to 1000mA & Tj=25C\n.MODEL XM-LWHT D\n+ IS=1.52113E-11\n+ N=4.936978564\n+ RS=0.209217895\n+ XTI=50.86969482\n+ EG=2.5000\n \n* Cree XLAMP XM-L Blue LED\n* Model valid for 150mA to 1000mA & Tj=25C\n.MODEL XM-LBLU D\n+ IS=5.84635E-11\n+ N=5.220712964\n+ RS=0.228138464\n+ XTI=50.63276655\n+ EG=2.5000\n \n* Cree XLAMP XM-L Green LED\n* Model valid for 150mA to 1000mA & Tj=25C\n.MODEL XM-LGRN D\n+ IS=2.91045E-07\n+ N=8.795766407\n+ RS=0.386537629\n+ XTI=66.28627594\n+ EG=2.5000\n \n* Cree XLAMP XM-L Red LED\n* Model valid for 150mA to 1000mA & Tj=25C\n.MODEL XM-LRED D\n+ IS=1.0659E-13\n+ N=2.780597122\n+ RS=0.545421573\n+ XTI=17.9643995\n+ EG=2.1000
TEXT -608 -152 Left 2 ;linearer Stromregler\nI_LED(t) = V_shunt(t)/R_shunt\n \nIdealer OP -> Differenzspannung zwischen V+ und V- ist 0V\n--> V_Rshunt = V+   \n( da idealer op fließt kein Strom in die Eingänge)\n=> I_LED(t) = V+(t)/R_shunt\n \nR1 verhindert dass der Ausgangstreiber des ops bei schnellen \nSignaländerungen in Sättigung geht, die Gatekapazität von \nLeistungsmosfets sollte immer berücksichtigt werden.\n \nR3 ist für den Ausgangsstrom nicht relevant, zumindest bei\nidealen Ops. In reellen Schaltungen sollte er verbaut werden\nweil dadurch der Input Bias (I_in-) des invertierenden Eingangs\nveringert werden kann wodurch die Offset- Spannung zwischen \nden Eingängen kleiner ist als ohne R3 wird.\nBei meiner Testschaltung konnte man doch die LEDs nicht ganz \nausschalten, dass ist wegen der Offsetspannung gewesen.\n \nDie Spannung an V_G verrät die Pinch-off Spannung des MOSFETS\nV_G entspricht nämlich gerade V+ plus Vt0 des FETS
TEXT -608 384 Left 2 ;.model IRF7401 VDMOS(Rg=3 Rd=8.8m Rs=6.6m      Vto=2      Kp=66 .....
TEXT -1096 -56 Left 2 !.param Vled = 15V
RECTANGLE Normal -48 400 -128 368
