Version 4
SHEET 1 2288 1956
WIRE -144 -112 -192 -112
WIRE -128 -112 -144 -112
WIRE 256 -112 208 -112
WIRE 272 -112 256 -112
WIRE 672 -112 624 -112
WIRE 688 -112 672 -112
WIRE -128 -96 -128 -112
WIRE 272 -96 272 -112
WIRE 688 -96 688 -112
WIRE -432 -16 -448 -16
WIRE -400 -16 -432 -16
WIRE -128 -16 -128 -32
WIRE 272 -16 272 -32
WIRE 688 -16 688 -32
WIRE -128 0 -128 -16
WIRE 272 0 272 -16
WIRE 688 0 688 -16
WIRE -448 16 -448 -16
WIRE -128 96 -128 64
WIRE -96 96 -128 96
WIRE 272 96 272 64
WIRE 304 96 272 96
WIRE 688 96 688 64
WIRE 720 96 688 96
WIRE -400 160 -480 160
WIRE -368 160 -400 160
WIRE 16 160 -16 160
WIRE 48 160 16 160
WIRE 432 160 400 160
WIRE 464 160 432 160
WIRE -288 176 -304 176
WIRE -192 176 -208 176
WIRE -176 176 -192 176
WIRE 128 176 112 176
WIRE 224 176 208 176
WIRE 544 176 528 176
WIRE 640 176 624 176
WIRE -480 192 -480 160
WIRE -368 192 -400 192
WIRE 48 192 16 192
WIRE 464 192 432 192
WIRE -400 240 -400 192
WIRE -288 240 -400 240
WIRE -160 240 -208 240
WIRE -128 240 -128 192
WIRE -128 240 -160 240
WIRE 16 240 16 192
WIRE 128 240 16 240
WIRE 272 240 272 192
WIRE 272 240 208 240
WIRE 432 240 432 192
WIRE 544 240 432 240
WIRE 688 240 688 192
WIRE 688 240 624 240
WIRE -128 256 -128 240
WIRE 272 256 272 240
WIRE 688 256 688 240
WIRE -480 304 -480 272
WIRE -128 368 -128 336
WIRE 272 368 272 336
WIRE 688 368 688 336
FLAG -128 368 0
FLAG -480 304 0
FLAG -144 -112 V_LED_R
FLAG 272 368 0
FLAG 256 -112 V_LED_G
FLAG 688 368 0
FLAG 672 -112 V_LED_B
FLAG 688 -16 bl
FLAG 272 -16 gn
FLAG -128 -16 rd
FLAG -400 160 V+
FLAG -160 240 shunt
FLAG -96 96 D_rd
FLAG -192 176 G
FLAG -400 192 V-
FLAG -448 80 0
FLAG -432 -16 V+common
FLAG 560 -112 V+common
FLAG 144 -112 V+common
FLAG -256 -112 V+common
FLAG 720 96 D_bl
FLAG 304 96 D_gn
FLAG -480 160 Vset
FLAG 16 160 Vset
FLAG 432 160 Vset
SYMBOL EIT_Semiconductors\\op_3 -336 176 M180
WINDOW 0 -5 38 Left 2
WINDOW 123 -17 69 Invisible 2
WINDOW 3 -16 43 Invisible 2
SYMATTR InstName U1
SYMBOL EIT_Semiconductors\\nmos -176 96 R0
SYMATTR InstName M1
SYMATTR Value IRF7401
SYMBOL res -304 192 R270
WINDOW 0 25 56 VTop 2
WINDOW 3 7 56 VBottom 2
SYMATTR InstName Rg
SYMATTR Value 10
SYMBOL res -144 240 R0
SYMATTR InstName Rshunt
SYMATTR Value 10
SYMBOL source-V -480 176 R0
WINDOW 3 -27 166 Left 2
WINDOW 123 0 0 Left 2
WINDOW 39 0 0 Left 2
SYMATTR InstName V1
SYMATTR Value PULSE(0 3.5 0 500m 1u 1u 500m)
SYMBOL res -192 224 R90
WINDOW 0 7 56 VBottom 2
WINDOW 3 25 56 VTop 2
SYMATTR InstName R3
SYMATTR Value 10k
SYMBOL diode -144 0 R0
SYMATTR InstName D1
SYMATTR Value XM-LRED
SYMBOL diode -144 -96 R0
SYMATTR InstName D2
SYMATTR Value XM-LRED
SYMBOL EIT_Semiconductors\\op_3 80 176 M180
WINDOW 0 -4 28 Left 2
WINDOW 123 -17 69 Invisible 2
WINDOW 3 -16 43 Invisible 2
SYMATTR InstName U3
SYMBOL EIT_Semiconductors\\nmos 224 96 R0
SYMATTR InstName M2
SYMATTR Value IRF7401
SYMBOL res 112 192 R270
WINDOW 0 25 56 VTop 2
WINDOW 3 7 56 VBottom 2
SYMATTR InstName R4
SYMATTR Value 10
SYMBOL res 256 240 R0
SYMATTR InstName R5
SYMATTR Value 10
SYMBOL res 224 224 R90
WINDOW 0 7 56 VBottom 2
WINDOW 3 25 56 VTop 2
SYMATTR InstName R6
SYMATTR Value 10k
SYMBOL EIT_Semiconductors\\op_3 496 176 M180
WINDOW 123 -17 69 Invisible 2
WINDOW 3 -16 43 Invisible 2
SYMATTR InstName U5
SYMBOL EIT_Semiconductors\\nmos 640 96 R0
SYMATTR InstName M3
SYMATTR Value IRF7401
SYMBOL res 528 192 R270
WINDOW 0 25 56 VTop 2
WINDOW 3 7 56 VBottom 2
SYMATTR InstName R7
SYMATTR Value 10
SYMBOL res 672 240 R0
SYMATTR InstName R8
SYMATTR Value 10
SYMBOL res 640 224 R90
WINDOW 0 7 56 VBottom 2
WINDOW 3 25 56 VTop 2
SYMATTR InstName R9
SYMATTR Value 10k
SYMBOL diode 256 -96 R0
SYMATTR InstName D3
SYMATTR Value XM-LGRN
SYMBOL diode 256 0 R0
SYMATTR InstName D6
SYMATTR Value XM-LGRN
SYMBOL diode 672 -96 R0
SYMATTR InstName D9
SYMATTR Value XM-LBLU
SYMBOL diode 672 0 R0
SYMATTR InstName D10
SYMATTR Value XM-LBLU
SYMBOL MDB_sym\\source-Vs -448 -16 R0
WINDOW 123 0 0 Left 2
WINDOW 39 0 0 Left 2
SYMATTR InstName V5
SYMATTR Value {Vled}
SYMBOL MDB_sym\\jumperRes -224 -176 R0
SYMATTR InstName U2
SYMBOL MDB_sym\\jumperRes 592 -176 R0
SYMATTR InstName U4
SYMBOL MDB_sym\\jumperRes 176 -176 R0
SYMATTR InstName U6
TEXT -508 374 Left 2 !.tran 1.2
TEXT 1240 -112 Left 2 !* Cree XLAMP XM-L White LED\n* Model valid for 150mA to 1000mA & Tj=25C\n.MODEL XM-LWHT D\n+ IS=1.52113E-11\n+ N=4.936978564\n+ RS=0.209217895\n+ XTI=50.86969482\n+ EG=2.5000\n \n* Cree XLAMP XM-L Blue LED\n* Model valid for 150mA to 1000mA & Tj=25C\n.MODEL XM-LBLU D\n+ IS=5.84635E-11\n+ N=5.220712964\n+ RS=0.228138464\n+ XTI=50.63276655\n+ EG=2.5000\n \n* Cree XLAMP XM-L Green LED\n* Model valid for 150mA to 1000mA & Tj=25C\n.MODEL XM-LGRN D\n+ IS=2.91045E-07\n+ N=8.795766407\n+ RS=0.386537629\n+ XTI=66.28627594\n+ EG=2.5000\n \n* Cree XLAMP XM-L Red LED\n* Model valid for 150mA to 1000mA & Tj=25C\n.MODEL XM-LRED D\n+ IS=1.0659E-13\n+ N=2.780597122\n+ RS=0.545421573\n+ XTI=17.9643995\n+ EG=2.1000
TEXT -768 984 Left 2 ;linearer Stromregler\nI_LED(t) = V_shunt(t)/R_shunt\n \nIdealer OP -> Differenzspannung zwischen V+ und V- ist 0V\n--> V_Rshunt = V+   \n( da idealer op fließt kein Strom in die Eingänge)\n=> I_LED(t) = V+(t)/R_shunt\n \nR1 verhindert dass der Ausgangstreiber des ops bei schnellen \nSignaländerungen in Sättigung geht, die Gatekapazität von \nLeistungsmosfets sollte immer berücksichtigt werden.\n \nR3 ist für den Ausgangsstrom nicht relevant, zumindest bei\nidealen Ops. In reellen Schaltungen sollte er verbaut werden\nweil dadurch der Input Bias (I_in-) des invertierenden Eingangs\nveringert werden kann wodurch die Offset- Spannung zwischen \nden Eingängen kleiner ist als ohne R3 wird.\nBei meiner Testschaltung konnte man doch die LEDs nicht ganz \nausschalten, dass ist wegen der Offsetspannung gewesen.\n \nDie Spannung an V_G verrät die Pinch-off Spannung des MOSFETS\nV_G entspricht nämlich gerade V+ plus Vt0 des FETS
TEXT -808 1560 Left 2 ;.model IRF7401 VDMOS(Rg=3 Rd=8.8m Rs=6.6m      Vto=2      Kp=66 .....
TEXT -488 -56 Left 2 !.param Vled = 15V
TEXT -488 -648 Left 2 ;Allgemein schlechter Wirkungsgrad da Linearregler -> Vdropout Schlecht bei dieser Schaltung ist außerdem, dass der MOSFET \nund Shuntwiderstand immer wesentlich höhere Verlustleistungen umsetzen müssen da die Vorwärtsspannung bei roten LEDs \nsehr viel geringer ist. Die hier verwendeten LED-Modelle sind macromodelle von CREE für unsere LEDs. Unterschiedliche \nFlussspannung sind aber immer vorhanden.\nDie minimale Versorgungsspannung richtet sich nach dem Verbraucher mit dem höchsten Spannungsabfall. Bis ca 75mA wird\nbestimmt somit die blaue, bei Strömen > 75mA bestimmt die grüne LED die max. Spannung  und dadurch auch den minimal erreich
TEXT -488 440 Left 2 ;Gut an der Schaltung ist, dass sie einfach und günstig aufgebaut werden kann. Die größere Verlustleistung beim MOSFET rot könnte \naufgeteilt werden zwischen FET und Shuntwiderstand, Eingangsspannung muss dann entsprechend skaliert werden.\nDie Ansteuerung kann, muss aber nicht mit einer linearen Eingangsspannung erfolgen. Bei höheren PWM- Frequenzen würde sich \nallerdings die Gate- Kapazität bemerkbar machen.
TEXT -504 -432 Left 2 ;Allgemein schlechter Wirkungsgrad da Linearregler -> Vdropout Schlecht bei dieser Schaltung ist außerdem, dass der MOSFET \nund Shuntwiderstand immer wesentlich höhere Verlustleistungen umsetzen müssen da die Vorwärtsspannung bei roten LEDs \nsehr viel geringer ist. Die hier verwendeten LED-Modelle sind macromodelle von CREE für unsere LEDs. Unterschiedliche \nFlussspannung sind aber immer vorhanden.\nDie minimale Versorgungsspannung richtet sich nach dem Verbraucher mit dem höchsten Spannungsabfall. Bis ca 75mA wird\nbestimmt somit die blaue, bei Strömen > 75mA bestimmt die grüne LED die max. Spannung  und dadurch auch den minimal \nerreichbaren Verlustfaktor der Gesamtschaltung.\n \nFür den Einsatz eines FETs finde ich keine sinnvolle Begründung.\nDie Notwendigkeit, leistungslos ansteuern zu können ist hier sicher nicht gegeben bei Verlustleistungen im Watt- Bereich.\nDie Treiberstufe jedes ops ist in der Lage, die Basisströme eine Bipolar-Transistors zur Verfügung zu stellen
