Version 4
SHEET 1 880 756
WIRE -96 -608 -144 -608
WIRE 16 -608 -16 -608
WIRE 64 -608 16 -608
WIRE 160 -608 128 -608
WIRE 208 -608 160 -608
WIRE 224 -608 208 -608
WIRE -288 -576 -336 -576
WIRE -256 -576 -288 -576
WIRE -336 -544 -336 -576
WIRE 16 -512 16 -608
WIRE 48 -512 16 -512
WIRE -64 -496 -64 -512
WIRE 160 -496 160 -608
WIRE 160 -496 112 -496
WIRE 0 -480 -32 -480
WIRE 48 -480 0 -480
WIRE -144 -464 -144 -608
WIRE -96 -464 -144 -464
WIRE -336 -448 -336 -464
WIRE 0 -448 -32 -448
WIRE 336 -432 288 -432
WIRE 368 -432 336 -432
WIRE -80 -416 -80 -432
WIRE -64 -416 -64 -432
WIRE -64 -416 -80 -416
WIRE -64 -400 -64 -416
WIRE 288 -400 288 -432
WIRE -144 -336 -144 -464
WIRE -112 -336 -144 -336
WIRE 0 -336 0 -448
WIRE 0 -336 -32 -336
WIRE 32 -336 0 -336
WIRE 160 -336 160 -496
WIRE 160 -336 112 -336
WIRE 288 -304 288 -320
WIRE 336 -240 288 -240
WIRE 368 -240 336 -240
WIRE -96 -224 -144 -224
WIRE 16 -224 -16 -224
WIRE 64 -224 16 -224
WIRE 160 -224 128 -224
WIRE 208 -224 160 -224
WIRE 224 -224 208 -224
WIRE 288 -208 288 -240
WIRE 16 -128 16 -224
WIRE 48 -128 16 -128
WIRE -64 -112 -64 -128
WIRE 160 -112 160 -224
WIRE 160 -112 112 -112
WIRE 288 -112 288 -128
WIRE 0 -96 -32 -96
WIRE 48 -96 0 -96
WIRE -144 -80 -144 -224
WIRE -96 -80 -144 -80
WIRE 0 -64 -32 -64
WIRE 336 -48 288 -48
WIRE 368 -48 336 -48
WIRE -80 -32 -80 -48
WIRE -64 -32 -64 -48
WIRE -64 -32 -80 -32
WIRE -304 -16 -352 -16
WIRE -288 -16 -304 -16
WIRE -64 -16 -64 -32
WIRE 288 -16 288 -48
WIRE -144 48 -144 -80
WIRE -112 48 -144 48
WIRE 0 48 0 -64
WIRE 0 48 -32 48
WIRE 32 48 0 48
WIRE 160 48 160 -112
WIRE 160 48 112 48
WIRE 288 80 288 64
WIRE 336 144 288 144
WIRE 368 144 336 144
WIRE 288 176 288 144
WIRE -192 224 -208 224
WIRE -96 224 -112 224
WIRE -96 256 -96 224
WIRE -128 272 -144 272
WIRE 288 272 288 256
WIRE 0 288 -64 288
WIRE -192 304 -272 304
WIRE -128 304 -192 304
WIRE -272 336 -272 304
WIRE -272 336 -288 336
WIRE -272 368 -272 336
WIRE 0 384 0 368
WIRE -272 464 -272 448
WIRE -176 576 -240 576
WIRE -80 576 -96 576
WIRE -80 608 -80 576
WIRE -112 624 -128 624
WIRE 16 640 -48 640
WIRE -192 656 -192 304
WIRE -112 656 -192 656
WIRE 16 736 16 720
FLAG -64 -16 0
FLAG -64 -128 Vop
FLAG 0 -96 vref
FLAG 80 -80 0
FLAG 80 -144 Vop
FLAG 208 -224 tritlv
FLAG 16 -224 c51
FLAG -64 -400 0
FLAG -64 -512 Vop
FLAG 0 -480 vref
FLAG 80 -528 Vop
FLAG 208 -608 trilm
FLAG 16 -608 c31
FLAG -304 -16 vref
FLAG -336 -448 0
FLAG -288 -576 Vop
FLAG -272 464 0
FLAG 0 384 0
FLAG 80 -464 0
FLAG -96 320 0
FLAG 16 736 0
FLAG -80 672 0
FLAG -128 624 re2
FLAG -144 272 re2
FLAG -384 304 re2
FLAG 288 80 0
FLAG 336 -48 R6_in_k
FLAG 288 272 0
FLAG 336 144 Vtri
FLAG 288 -112 0
FLAG 336 -240 R5_in_k
FLAG 288 -304 0
FLAG 336 -432 R7_in_k
SYMBOL SBORKA\\OPamp\\TLV3501 -64 -144 M0
WINDOW 3 11 8 Left 2
SYMATTR InstName U1
SYMBOL res 128 32 R90
WINDOW 0 7 56 VBottom 2
WINDOW 3 25 56 VTop 2
SYMATTR InstName R1
SYMATTR Value {R5}
SYMBOL res -16 32 R90
WINDOW 0 7 56 VBottom 2
WINDOW 3 25 56 VTop 2
SYMATTR InstName R2
SYMATTR Value {R6}
SYMBOL res -112 -208 R270
WINDOW 0 25 56 VTop 2
WINDOW 3 7 56 VBottom 2
SYMATTR InstName R71
SYMATTR Value {R7}
SYMBOL EIT_Semiconductors\\op_3 80 -112 R0
WINDOW 123 -17 69 Invisible 2
WINDOW 3 -16 43 Invisible 2
SYMATTR Value Vp=Vpop Vm=0 Ilim=20m
SYMATTR InstName U2
SYMBOL SBORKA\\OPamp\\TLV3501 -64 -528 M0
WINDOW 3 11 8 Left 2
SYMATTR InstName U3
SYMBOL res -112 -592 R270
WINDOW 0 25 56 VTop 2
WINDOW 3 7 56 VBottom 2
SYMATTR InstName R7
SYMATTR Value {R7}
SYMBOL cap 64 -592 R270
WINDOW 0 32 32 VTop 2
WINDOW 3 0 32 VBottom 2
SYMATTR InstName C2
SYMATTR Value {C3}
SYMBOL source-Vmarker -352 -16 R0
WINDOW 3 -61 -2 Center 2
SYMATTR Value V=2.5V
SYMATTR InstName U5
SYMBOL source-V -336 -560 R0
WINDOW 3 36 62 Left 2
WINDOW 123 0 0 Left 2
WINDOW 39 0 0 Left 2
SYMATTR InstName V1
SYMATTR Value 5
SYMBOL source-V -272 352 R0
WINDOW 3 36 62 Left 2
WINDOW 123 0 0 Left 2
WINDOW 39 0 0 Left 2
SYMATTR InstName V3
SYMATTR Value PULSE(0 1 0 1n 1n 100u 200u)
SYMBOL EXTRA\\AudioOpamp\\TI\\OPA2613_TI 80 -496 R0
WINDOW 3 -43 71 Left 2
SYMATTR InstName U4
SYMBOL EXTRA\\AudioOpamp\\TI\\OPA2613_TI -96 288 R0
WINDOW 3 -43 71 Left 2
SYMATTR InstName U6
SYMBOL EXTRA\\ExtraOpamps\\LM358_ST -80 640 R0
SYMATTR InstName U7
SYMBOL source-Vmarker -208 224 R0
WINDOW 3 -61 -2 Center 2
SYMATTR InstName U8
SYMBOL res -208 240 R270
WINDOW 0 25 56 VTop 2
WINDOW 3 7 56 VBottom 2
SYMATTR InstName R10
SYMATTR Value 22
SYMBOL source-Vmarker -240 576 R0
WINDOW 3 -61 -2 Center 2
SYMATTR InstName U9
SYMBOL res -192 592 R270
WINDOW 0 25 56 VTop 2
WINDOW 3 7 56 VBottom 2
SYMATTR InstName R11
SYMATTR Value 22
SYMBOL source-Vmarker -384 304 R0
WINDOW 3 -61 -2 Center 2
SYMATTR Value V=0.6
SYMATTR InstName U10
SYMBOL source-V 288 -32 R0
WINDOW 3 36 62 Left 2
WINDOW 123 0 0 Left 2
WINDOW 39 0 0 Left 2
SYMATTR InstName V2
SYMATTR Value {R6*1e-3}
SYMBOL cap 64 -208 R270
WINDOW 0 32 32 VTop 2
WINDOW 3 0 32 VBottom 2
SYMATTR InstName C1
SYMATTR Value {C3}
SYMBOL res -16 -352 R90
WINDOW 0 7 56 VBottom 2
WINDOW 3 25 56 VTop 2
SYMATTR InstName R3
SYMATTR Value {R6}
SYMBOL res 128 -352 R90
WINDOW 0 7 56 VBottom 2
WINDOW 3 25 56 VTop 2
SYMATTR InstName R4
SYMATTR Value {R5}
SYMBOL source-V 288 160 R0
WINDOW 3 36 62 Left 2
WINDOW 123 0 0 Left 2
WINDOW 39 0 0 Left 2
SYMATTR InstName V4
SYMATTR Value {R5/R6*Vrm}
SYMBOL source-V 288 -224 R0
WINDOW 3 36 62 Left 2
WINDOW 123 0 0 Left 2
WINDOW 39 0 0 Left 2
SYMATTR InstName V5
SYMATTR Value {R5*1e-3}
SYMBOL source-V 288 -416 R0
WINDOW 3 36 62 Left 2
WINDOW 123 0 0 Left 2
WINDOW 39 0 0 Left 2
SYMATTR InstName V6
SYMATTR Value {R7*1e-3}
TEXT -1104 -632 Left 2 !; Vtri = R5/R6*Vrm\n; --------------------------\n; In this equation, Vrm is the comparator output voltage \n; above or below the reference voltage. For example, in\n; our system the comparator output will be either 5V or \n; 0V. Because this circuit employs a 2.5V reference, V1 \n; is equal to 2.5V\n.param Vrm = 2.5V\n \n.param R6 = 10k    ; oder größer\n.param Vtri = 2.1V   \n.param R5 = {(Vtri*R6)/Vrm}\n; --------------------------\n; somit kann bei AnalogIn=[-2...2V] niemals \n; p=100%  erreicht werden!!\n \n; PWM frequenz festlegen\n; --------------------------\n.param C3 = 100n\n.param ft = 500\n.param R7 = {R6/ ( ft*4*R5*C3 )}
TEXT -440 -160 Left 2 !.tran {5/ft} uic
TEXT -448 -320 Left 2 ;.param Vsup=10V\n.param Ik=3.9m\n \n.param rail=0
TEXT -576 -80 Left 2 !.options plotwinsize = 0
TEXT -720 -16 Left 2 !.param Vpop = 5V
TEXT -520 -736 Left 2 !.model mysw SW(Ron=1m Roff=100Meg Vt=0 Vh=-.5 )
