Version 4
SHEET 1 880 680
WIRE 256 112 240 112
WIRE 320 112 256 112
WIRE 320 128 320 112
WIRE -48 176 -64 176
WIRE -32 176 -48 176
WIRE -64 208 -64 176
WIRE 256 224 256 112
WIRE 176 240 128 240
WIRE 224 240 176 240
WIRE 320 256 320 208
WIRE 320 256 288 256
WIRE 352 256 320 256
WIRE 192 272 176 272
WIRE 224 272 192 272
WIRE -64 304 -64 288
WIRE 256 304 256 288
WIRE 240 416 224 416
WIRE 240 464 240 416
WIRE 176 480 160 480
WIRE 208 480 176 480
WIRE 368 496 272 496
WIRE 384 496 368 496
WIRE 176 512 160 512
WIRE 208 512 176 512
WIRE 240 544 240 528
FLAG 240 544 0
FLAG 368 496 tl
FLAG 256 304 0
FLAG 352 256 LM
FLAG 192 272 ain
FLAG -64 304 0
FLAG -48 176 ain
FLAG 176 512 ain
FLAG 176 240 ref
FLAG 176 480 ref
SYMBOL SBORKA\\OPamp\\TLV3501 240 432 R0
SYMATTR InstName U1
SYMBOL source-Vmarker 224 416 R0
SYMATTR InstName U2
SYMBOL SBORKA\\COMPARATOR\\lm393 256 256 R0
WINDOW 38 7 29 Left 2
SYMATTR InstName U3
SYMBOL source-Vmarker 240 112 R0
SYMATTR InstName U4
SYMBOL res 304 112 R0
SYMATTR InstName R1
SYMATTR Value 4k7
SYMBOL source-Vmarker 128 240 R0
SYMATTR Value V=0.6
SYMATTR InstName U5
SYMBOL source-V -64 192 R0
WINDOW 3 -46 156 Left 2
WINDOW 123 0 0 Left 2
WINDOW 39 0 0 Left 2
SYMATTR Value SINE(0 1 25)
SYMATTR InstName V1
TEXT -72 448 Left 2 !.tran 100m
TEXT -104 384 Left 2 ;SINE(1 1 25)
