Version 4
SHEET 1 880 1068
WIRE 96 -64 96 -96
WIRE 256 -64 256 -96
WIRE 384 -64 384 -96
WIRE -144 -48 -192 -48
WIRE -128 -48 -144 -48
WIRE 176 -16 160 -16
WIRE 192 -16 176 -16
WIRE 480 -16 448 -16
WIRE -736 16 -736 -16
WIRE -576 16 -576 -16
WIRE -928 64 -976 64
WIRE -912 64 -928 64
WIRE -656 64 -672 64
WIRE -640 64 -656 64
WIRE 96 80 96 32
WIRE 176 80 176 -16
WIRE 256 80 256 32
WIRE 256 80 176 80
WIRE 384 80 384 32
WIRE 384 80 256 80
WIRE 480 80 480 64
WIRE 256 112 256 80
WIRE 640 128 624 128
WIRE -656 144 -656 64
WIRE -576 144 -576 112
WIRE -576 144 -656 144
WIRE -560 144 -576 144
WIRE -464 144 -480 144
WIRE -848 208 -880 208
WIRE -736 208 -736 112
WIRE -736 208 -768 208
WIRE -672 208 -736 208
WIRE -624 208 -672 208
WIRE 256 208 256 192
WIRE 480 208 480 176
WIRE -880 256 -880 208
WIRE -16 256 -48 256
WIRE -736 272 -736 208
WIRE -1024 304 -1056 304
WIRE -48 304 -48 256
WIRE 256 304 256 288
WIRE -1056 336 -1056 304
WIRE -192 352 -240 352
WIRE -240 368 -240 352
WIRE 256 400 256 384
WIRE 256 400 176 400
WIRE 416 400 256 400
WIRE -880 416 -880 352
WIRE -736 416 -736 336
WIRE -1056 432 -1056 416
WIRE 416 432 416 400
WIRE 96 448 96 400
WIRE 256 448 256 400
WIRE -240 464 -240 448
WIRE -48 464 -48 400
WIRE 512 480 480 480
WIRE 608 480 592 480
WIRE 176 496 176 400
WIRE 176 496 160 496
WIRE 192 496 176 496
WIRE 96 576 96 544
WIRE 256 576 256 544
WIRE 416 592 416 528
WIRE 592 688 416 688
WIRE -256 752 -256 704
WIRE -256 752 -304 752
WIRE -208 752 -256 752
WIRE -48 752 -48 704
WIRE -48 752 -96 752
WIRE 0 752 -48 752
WIRE 16 752 0 752
WIRE 96 752 80 752
WIRE 144 752 144 704
WIRE 144 752 96 752
WIRE 192 752 144 752
WIRE 592 752 512 752
WIRE -304 768 -304 752
WIRE -208 768 -208 752
WIRE -96 768 -96 752
WIRE 0 768 0 752
WIRE 96 768 96 752
WIRE 192 768 192 752
WIRE 416 800 416 688
WIRE 512 800 512 752
WIRE -304 848 -304 832
WIRE -208 848 -208 832
WIRE -96 848 -96 832
WIRE 0 848 0 832
WIRE 96 848 96 832
WIRE 192 848 192 832
WIRE 416 896 416 880
WIRE 512 896 512 880
WIRE -304 928 -304 912
WIRE -96 928 -96 912
WIRE 96 928 96 912
WIRE -208 960 -208 928
WIRE 0 960 0 928
WIRE 192 960 192 928
FLAG 256 208 0
FLAG -48 464 0
FLAG -240 464 0
FLAG 96 -96 V+
FLAG 256 -96 V+
FLAG 96 80 src
FLAG 384 -96 V+
FLAG 480 208 0
FLAG 96 576 0
FLAG 256 576 0
FLAG 256 288 V+
FLAG 416 592 0
FLAG 416 896 0
FLAG -464 144 0
FLAG -880 416 0
FLAG -736 416 0
FLAG -1056 432 0
FLAG -928 64 V+o
FLAG -672 208 saw
FLAG 640 128 source_off
FLAG 608 480 sink_off
FLAG 592 752 sink_off
FLAG 592 688 source_off
FLAG -96 928 0
FLAG 0 960 0
FLAG -48 704 src
FLAG 512 896 0
FLAG 96 400 sink
FLAG 48 256 0
FLAG 64 256 0
FLAG -304 928 0
FLAG -208 960 0
FLAG -256 704 tri
FLAG 144 704 sink
FLAG 192 960 V+
FLAG 96 928 V+
FLAG -736 -16 V+o
FLAG -576 -16 V+o
FLAG -144 -48 V+
SYMBOL EIT_Semiconductors\\npn -112 304 R0
SYMATTR InstName Q1
SYMATTR Value 2N3904
SYMBOL EIT_Semiconductors\\pnp 160 32 R180
SYMATTR InstName Q2
SYMATTR Value 2N3906
SYMBOL EIT_Semiconductors\\pnp 192 32 M180
WINDOW 3 94 88 Left 2
SYMATTR Value 2N3906
SYMATTR InstName Q3
SYMBOL res -208 368 R270
WINDOW 0 25 56 VTop 2
WINDOW 3 7 56 VBottom 2
SYMATTR InstName R1
SYMATTR Value 10k
SYMBOL res 272 96 M0
SYMATTR InstName R2
SYMATTR Value 2k
SYMBOL source-V -240 352 R0
WINDOW 3 -155 -150 Left 2
WINDOW 123 0 0 Left 2
WINDOW 39 0 0 Left 2
SYMATTR Value PULSE(0 10 0 100n 100n {1/(2*fp)} {1/fp})
SYMATTR InstName V1
SYMBOL res -32 272 R270
WINDOW 0 25 56 VTop 2
WINDOW 3 7 56 VBottom 2
SYMATTR InstName R3
SYMATTR Value 100t
SYMBOL EIT_Semiconductors\\pnp 448 32 R180
WINDOW 3 92 120 Left 2
SYMATTR Value 2N3906
SYMATTR InstName Q4
SYMBOL EIT_Semiconductors\\npn 544 80 M0
SYMATTR InstName Q5
SYMATTR Value 2N3904
SYMBOL res 640 144 M270
WINDOW 0 25 56 VTop 2
WINDOW 3 7 56 VBottom 2
SYMATTR InstName R4
SYMATTR Value 10k
SYMBOL res 464 -32 R0
SYMATTR InstName R5
SYMATTR Value 220
SYMBOL EIT_Semiconductors\\npn 160 448 M0
SYMATTR InstName Q6
SYMATTR Value 2N3904
SYMBOL EIT_Semiconductors\\npn 192 448 R0
SYMATTR InstName Q7
SYMATTR Value 2N3904
SYMBOL res 272 288 M0
SYMATTR InstName R6
SYMATTR Value 2k
SYMBOL EIT_Semiconductors\\npn 480 432 M0
SYMATTR InstName Q8
SYMATTR Value 2N3904
SYMBOL res 608 496 M270
WINDOW 0 25 56 VTop 2
WINDOW 3 7 56 VBottom 2
SYMATTR InstName R7
SYMATTR Value 10k
SYMBOL source-V 416 784 M0
WINDOW 3 -404 173 Left 2
WINDOW 123 0 0 Left 2
WINDOW 39 0 0 Left 2
SYMATTR Value PULSE(0 {Vplus} 0 100n 100n {1/(2*fp)-Td/2})
SYMATTR InstName V3
SYMBOL EIT_Semiconductors\\npn -944 256 R0
SYMATTR InstName Q9
SYMATTR Value 2N3904
SYMBOL EIT_Semiconductors\\pnp -672 112 R180
SYMATTR InstName Q10
SYMATTR Value 2N3906
SYMBOL EIT_Semiconductors\\pnp -640 112 M180
WINDOW 3 94 88 Left 2
SYMATTR Value 2N3906
SYMATTR InstName Q11
SYMBOL res -1040 320 R270
WINDOW 0 25 56 VTop 2
WINDOW 3 7 56 VBottom 2
SYMATTR InstName R8
SYMATTR Value 10k
SYMBOL cap -752 272 R0
SYMATTR InstName C2
SYMATTR Value 500n
SYMBOL res -576 128 M90
WINDOW 0 7 56 VBottom 2
WINDOW 3 25 56 VTop 2
SYMATTR InstName R9
SYMATTR Value 2k
SYMBOL source-V -1056 320 R0
WINDOW 3 -29 167 Left 2
WINDOW 123 0 0 Left 2
WINDOW 39 0 0 Left 2
SYMATTR Value PULSE(0 10 0 100n 100n {1/(2*fp)} {1/fp})
SYMATTR InstName V4
SYMBOL source-Vmarker -976 64 R0
SYMATTR Value V=10V
SYMATTR InstName U2
SYMBOL res -864 224 R270
WINDOW 0 25 56 VTop 2
WINDOW 3 7 56 VBottom 2
SYMATTR InstName R10
SYMATTR Value 10
SYMBOL cap -112 848 R0
SYMATTR InstName C1
SYMATTR Value 500n
SYMBOL res -16 832 R0
SYMATTR InstName R11
SYMATTR Value 220
SYMBOL MDB_sym\\jumperRes 64 800 R90
SYMATTR InstName U3
SYMBOL cap -320 848 R0
SYMATTR InstName C3
SYMATTR Value 500n
SYMBOL res -224 832 R0
SYMATTR InstName R12
SYMATTR Value 220
SYMBOL MDB_sym\\jumperRes -144 800 R90
SYMATTR InstName U1
SYMBOL cap 80 848 R0
SYMATTR InstName C4
SYMATTR Value 500n
SYMBOL res 176 832 R0
SYMATTR InstName R13
SYMATTR Value 220
SYMBOL MDB_sym\\jumperRes 48 688 R0
SYMATTR InstName U4
SYMBOL source-Vmarker -192 -48 R0
SYMATTR Value V={Vplus}
SYMATTR InstName U5
SYMBOL source-V 512 784 M0
WINDOW 3 -292 228 Left 2
WINDOW 123 0 0 Left 2
WINDOW 39 0 0 Left 2
SYMATTR Value PULSE({Vplus} 0 0 100n 100n {1/(2*fp)+Td/2})
SYMATTR InstName V2
TEXT -328 -184 Left 2 !.tran 10m startup
TEXT -1096 -72 Left 2 ;Bootstrap  Ramp Generator\nM. H. Miller
TEXT -216 568 Left 2 ;.ic v(tri)=0
TEXT -312 56 Left 2 !.param Vplus = 10V\n.param fp = 100\n.param Tp = 1/fp\n;.param Td = 0.05*Tp\n.param Td = 100u
RECTANGLE Normal -432 544 -1120 -112 2
