Version 4
SHEET 1 1304 848
WIRE 336 -64 320 -64
WIRE 352 -64 336 -64
WIRE 480 -64 432 -64
WIRE 720 0 688 0
WIRE 736 0 720 0
WIRE 400 48 400 32
WIRE 720 48 688 48
WIRE 736 48 720 48
WIRE 336 64 336 -64
WIRE 368 64 336 64
WIRE 480 80 480 -64
WIRE 480 80 432 80
WIRE 368 96 336 96
WIRE 480 112 480 80
WIRE 400 128 400 112
WIRE 336 208 336 96
WIRE 480 208 480 192
WIRE 480 208 336 208
WIRE 0 224 -48 224
WIRE 112 224 64 224
WIRE 480 224 480 208
WIRE -272 272 -272 256
WIRE -304 288 -336 288
WIRE 32 288 32 272
WIRE -192 304 -240 304
WIRE -144 304 -192 304
WIRE -48 304 -48 224
WIRE -48 304 -64 304
WIRE 0 304 -48 304
WIRE -304 320 -336 320
WIRE 112 320 112 224
WIRE 112 320 64 320
WIRE -192 336 -192 304
WIRE 0 336 -32 336
WIRE 480 336 480 304
WIRE -272 352 -272 336
WIRE 32 368 32 352
WIRE 272 384 224 384
WIRE 304 384 272 384
WIRE 224 416 224 384
WIRE -336 448 -336 320
WIRE -192 448 -192 416
WIRE -192 448 -336 448
WIRE -144 448 -192 448
WIRE 112 448 112 320
WIRE 112 448 -64 448
WIRE 224 512 224 496
FLAG 400 128 0
FLAG 400 32 Vop
FLAG 720 48 Vop
FLAG 480 336 0
FLAG 256 -64 0
FLAG -272 256 Vop
FLAG 32 272 Vop
FLAG -32 336 0
FLAG -336 288 0
FLAG 224 512 0
FLAG 272 384 C2_in_uF
FLAG -272 352 -Vop
FLAG 32 368 -Vop
FLAG 720 0 -Vop
FLAG -48 224 Vc
SYMBOL EXTRA\\ExtraOpamps\\LM358_ST 400 80 R0
WINDOW 3 -39 93 Left 2
SYMATTR InstName U1
SYMBOL source-Vmarker 688 48 R0
WINDOW 3 -61 -2 Center 2
SYMATTR Value V={Vop}
SYMATTR InstName U2
SYMBOL res 336 -48 R270
WINDOW 0 25 56 VTop 2
WINDOW 3 7 56 VBottom 2
SYMATTR InstName R1
SYMATTR Value {Rf}
SYMBOL res 464 96 R0
SYMATTR InstName R2
SYMATTR Value {R2}
SYMBOL res 464 208 R0
SYMATTR InstName R3
SYMATTR Value {R1}
SYMBOL cap 256 -80 M90
WINDOW 0 0 32 VBottom 2
WINDOW 3 32 32 VTop 2
SYMATTR InstName C1
SYMATTR Value {C1}
SYMBOL EXTRA\\ExtraOpamps\\LM358_ST -272 304 R0
WINDOW 3 -39 93 Left 2
SYMATTR InstName U3
SYMBOL res -208 320 R0
SYMATTR InstName R4
SYMATTR Value {R20}
SYMBOL res -160 464 R270
WINDOW 0 25 56 VTop 2
WINDOW 3 7 56 VBottom 2
SYMATTR InstName R5
SYMATTR Value {R10}
SYMBOL res -160 320 R270
WINDOW 0 25 56 VTop 2
WINDOW 3 7 56 VBottom 2
SYMATTR InstName R6
SYMATTR Value {Rt}
SYMBOL cap 0 240 R270
WINDOW 0 32 32 VTop 2
WINDOW 3 0 32 VBottom 2
SYMATTR InstName C2
SYMATTR Value {C2}
SYMATTR SpiceLine Rser=10 Rpar=10meg
SYMBOL source-V 224 400 R0
WINDOW 3 36 62 Left 2
WINDOW 123 0 0 Left 2
WINDOW 39 0 0 Left 2
SYMATTR Value {C2}
SYMATTR InstName V1
SYMBOL source-Vmarker 688 0 R0
WINDOW 3 -61 -2 Center 2
SYMATTR Value V={-Vop}
SYMATTR InstName U5
SYMBOL EXTRA\\AudioOpamp\\TI\\OPA2613_TI 32 320 R0
SYMATTR InstName U4
TEXT 592 88 Left 2 !.param Vop = 10V\n \n; fout = 1/(2*Rf*C1*ln(2*R1/R2+1))\n.param C1 = 1/(2*Rf*1k*ln(2*R1/R2+1))\n.param Rf = 30k\n.param R1 = 10k\n.param R2 = {5*R1}\n;.param C1 = 100n
TEXT 564 -48 Left 2 !.tran 100m
TEXT -88 -144 Left 2 ;http://www.play-hookey.com/analog/generators/square_wave_generator.html
TEXT -280 536 Left 2 !; fout = 1/(4*Rt*R10*C2) * R20/R10\n; R10 < R20\n.param R10 = 22k\n.param R20 = 25k\n.param Rt = 10k\n.param  C2 = 1/(4*Rt*R10*fout) * R20/R10\n.param fout=100
TEXT -160 168 Left 2 ;.ic V(Vc)=6
