Version 4
SHEET 1 880 680
WIRE -896 -144 -896 -160
WIRE -896 -96 -896 -144
WIRE -784 -16 -832 -16
WIRE -784 0 -784 -16
WIRE 304 64 304 48
WIRE -80 80 -96 80
WIRE 48 80 0 80
WIRE 64 80 48 80
WIRE -896 112 -896 64
WIRE -896 112 -1008 112
WIRE -784 112 -784 80
WIRE -784 112 -896 112
WIRE -656 112 -784 112
WIRE -496 128 -592 128
WIRE -896 144 -896 112
WIRE -656 144 -704 144
WIRE 304 144 208 144
WIRE -1008 160 -1008 112
WIRE 208 160 208 144
WIRE 304 224 304 144
WIRE -1056 240 -1088 240
WIRE -704 256 -704 144
WIRE -496 256 -496 128
WIRE -496 256 -704 256
WIRE 208 256 208 240
WIRE 272 256 208 256
WIRE -1008 288 -1008 256
WIRE -896 288 -896 208
WIRE -720 304 -720 288
WIRE 208 304 208 256
WIRE -720 320 -720 304
WIRE -784 400 -784 112
WIRE -784 400 -832 400
WIRE 208 400 208 384
WIRE 304 400 304 288
WIRE -1088 416 -1088 240
WIRE -896 416 -1088 416
WIRE -720 432 -720 400
WIRE -720 432 -832 432
WIRE -720 496 -720 432
WIRE -720 608 -720 576
FLAG 304 400 0
FLAG 208 400 0
FLAG 304 48 Vop
FLAG 48 80 Vop
FLAG -896 288 0
FLAG -1008 288 0
FLAG -624 160 Vop
FLAG -864 448 Vop
FLAG -864 384 0
FLAG -624 96 0
FLAG -896 -144 Vop
FLAG -720 608 0
FLAG -720 304 Vop
SYMBOL SBORKA\\REF\\tlv431_on 288 224 R0
SYMATTR InstName U1
SYMBOL res 288 48 R0
SYMATTR InstName R1
SYMATTR Value {100+set*10k}
SYMBOL res 192 288 R0
SYMATTR InstName R2
SYMATTR Value 10k
SYMBOL res 192 144 R0
WINDOW 3 -32 58 Left 2
SYMATTR Value 10k
SYMATTR InstName R3
SYMBOL source-Vmarker -96 80 R0
WINDOW 3 -61 -2 Center 2
SYMATTR Value V={Vop}
SYMATTR InstName U2
SYMBOL source-V 16 80 R90
WINDOW 0 -27 56 VBottom 2
WINDOW 3 27 56 VTop 2
WINDOW 123 0 0 Left 2
WINDOW 39 0 0 Left 2
SYMATTR InstName V1
SYMATTR Value SINE(0 2 100 10m)
SYMBOL LM334 -896 -16 R0
SYMATTR InstName U3
SYMBOL cap -912 144 R0
SYMATTR InstName C1
SYMATTR Value 1µ
SYMBOL EIT_Semiconductors\\nmos -1056 160 R0
SYMATTR InstName M2
SYMATTR Value FDS6680
SYMBOL EXTRA\\ExtraOpamps\\LM358_ST -864 416 R180
SYMATTR InstName U4
SYMBOL EXTRA\\ExtraOpamps\\LM358_ST -624 128 M180
SYMATTR InstName U5
SYMBOL res -800 -16 R0
SYMATTR InstName R4
SYMATTR Value 500
SYMBOL res -736 304 R0
SYMATTR InstName R5
SYMATTR Value 10k
SYMBOL res -736 480 R0
SYMATTR InstName R6
SYMATTR Value 100k
TEXT 176 -80 Left 2 !.param fc = 50
TEXT 176 -48 Left 2 !.param set = 1
TEXT 184 -24 Left 2 ;.step param set 0 1 .025
TEXT -128 -56 Left 2 !.param Vop = 10V
TEXT -114 424 Left 2 !.tran 205m
