Version 4
SHEET 1 880 756
WIRE -432 -736 -480 -736
WIRE -320 -736 -352 -736
WIRE -272 -736 -320 -736
WIRE -176 -736 -208 -736
WIRE -128 -736 -176 -736
WIRE -112 -736 -128 -736
WIRE -320 -640 -320 -736
WIRE -288 -640 -320 -640
WIRE -400 -624 -400 -640
WIRE -176 -624 -176 -736
WIRE -176 -624 -224 -624
WIRE -336 -608 -368 -608
WIRE -288 -608 -336 -608
WIRE -480 -592 -480 -736
WIRE -432 -592 -480 -592
WIRE -336 -576 -368 -576
WIRE -416 -544 -416 -560
WIRE -400 -544 -400 -560
WIRE -400 -544 -416 -544
WIRE -400 -528 -400 -544
WIRE -480 -464 -480 -592
WIRE -448 -464 -480 -464
WIRE -336 -464 -336 -576
WIRE -336 -464 -368 -464
WIRE -304 -464 -336 -464
WIRE -176 -464 -176 -624
WIRE -176 -464 -224 -464
WIRE -432 -352 -480 -352
WIRE -320 -352 -352 -352
WIRE -272 -352 -320 -352
WIRE -176 -352 -208 -352
WIRE -128 -352 -176 -352
WIRE -112 -352 -128 -352
WIRE -320 -256 -320 -352
WIRE -288 -256 -320 -256
WIRE -400 -240 -400 -256
WIRE -176 -240 -176 -352
WIRE -176 -240 -224 -240
WIRE -336 -224 -368 -224
WIRE -288 -224 -336 -224
WIRE -480 -208 -480 -352
WIRE -432 -208 -480 -208
WIRE -720 -192 -752 -192
WIRE -704 -192 -720 -192
WIRE -336 -192 -368 -192
WIRE -416 -160 -416 -176
WIRE -400 -160 -400 -176
WIRE -400 -160 -416 -160
WIRE -400 -144 -400 -160
WIRE -480 -80 -480 -208
WIRE -448 -80 -480 -80
WIRE -336 -80 -336 -192
WIRE -336 -80 -368 -80
WIRE -304 -80 -336 -80
WIRE -176 -80 -176 -240
WIRE -176 -80 -224 -80
WIRE -1008 32 -1056 32
WIRE -976 32 -1008 32
WIRE -848 32 -896 32
WIRE -816 32 -848 32
WIRE -688 32 -736 32
WIRE -656 32 -688 32
WIRE -528 32 -576 32
WIRE -496 32 -528 32
WIRE -336 32 -384 32
WIRE -304 32 -336 32
WIRE -1056 64 -1056 32
WIRE -896 64 -896 32
WIRE -736 64 -736 32
WIRE -576 64 -576 32
WIRE -384 64 -384 32
WIRE -1056 160 -1056 144
WIRE -896 160 -896 144
WIRE -736 160 -736 144
WIRE -576 160 -576 144
WIRE -384 160 -384 144
FLAG -400 -144 0
FLAG -400 -256 Vop
FLAG -336 -224 vref
FLAG -256 -208 0
FLAG -256 -272 Vop
FLAG -128 -352 tritlv
FLAG -320 -352 c51
FLAG -400 -528 0
FLAG -400 -640 Vop
FLAG -336 -608 vref
FLAG -256 -656 Vop
FLAG -128 -736 trilm
FLAG -320 -736 c31
FLAG -720 -192 vref
FLAG -384 160 0
FLAG -336 32 Vop
FLAG -256 -592 0
FLAG -896 160 0
FLAG -848 32 R6_in_k
FLAG -576 160 0
FLAG -528 32 Vtri
FLAG -736 160 0
FLAG -688 32 R5_in_k
FLAG -1056 160 0
FLAG -1008 32 R7_in_k
SYMBOL SBORKA\\OPamp\\TLV3501 -400 -272 M0
WINDOW 3 11 8 Left 2
SYMATTR InstName U1
SYMBOL res -208 -96 R90
WINDOW 0 7 56 VBottom 2
WINDOW 3 25 56 VTop 2
SYMATTR InstName R1
SYMATTR Value {R5}
SYMBOL res -352 -96 R90
WINDOW 0 7 56 VBottom 2
WINDOW 3 25 56 VTop 2
SYMATTR InstName R2
SYMATTR Value {R6}
SYMBOL res -448 -336 R270
WINDOW 0 25 56 VTop 2
WINDOW 3 7 56 VBottom 2
SYMATTR InstName R71
SYMATTR Value {R7}
SYMBOL EIT_Semiconductors\\op_3 -256 -240 R0
WINDOW 123 -17 69 Invisible 2
WINDOW 3 -16 43 Invisible 2
SYMATTR Value Vp=Vpop Vm=0 Ilim=20m
SYMATTR InstName U2
SYMBOL SBORKA\\OPamp\\TLV3501 -400 -656 M0
WINDOW 3 11 8 Left 2
SYMATTR InstName U3
SYMBOL res -448 -720 R270
WINDOW 0 25 56 VTop 2
WINDOW 3 7 56 VBottom 2
SYMATTR InstName R7
SYMATTR Value {R7}
SYMBOL cap -272 -720 R270
WINDOW 0 32 32 VTop 2
WINDOW 3 0 32 VBottom 2
SYMATTR InstName C2
SYMATTR Value {C3}
SYMBOL source-Vmarker -752 -192 R0
WINDOW 3 -61 -2 Center 2
SYMATTR Value V=2.5V
SYMATTR InstName U5
SYMBOL source-V -384 48 R0
WINDOW 3 36 62 Left 2
WINDOW 123 0 0 Left 2
WINDOW 39 0 0 Left 2
SYMATTR InstName V1
SYMATTR Value 5
SYMBOL EXTRA\\AudioOpamp\\TI\\OPA2613_TI -256 -624 R0
WINDOW 3 -43 71 Left 2
SYMATTR InstName U4
SYMBOL source-V -896 48 R0
WINDOW 3 36 62 Left 2
WINDOW 123 0 0 Left 2
WINDOW 39 0 0 Left 2
SYMATTR InstName V2
SYMATTR Value {R6*1e-3}
SYMBOL cap -272 -336 R270
WINDOW 0 32 32 VTop 2
WINDOW 3 0 32 VBottom 2
SYMATTR InstName C1
SYMATTR Value {C3}
SYMBOL res -352 -480 R90
WINDOW 0 7 56 VBottom 2
WINDOW 3 25 56 VTop 2
SYMATTR InstName R3
SYMATTR Value {R6}
SYMBOL res -208 -480 R90
WINDOW 0 7 56 VBottom 2
WINDOW 3 25 56 VTop 2
SYMATTR InstName R4
SYMATTR Value {R5}
SYMBOL source-V -576 48 R0
WINDOW 3 36 62 Left 2
WINDOW 123 0 0 Left 2
WINDOW 39 0 0 Left 2
SYMATTR InstName V4
SYMATTR Value {R5/R6*Vrm}
SYMBOL source-V -736 48 R0
WINDOW 3 36 62 Left 2
WINDOW 123 0 0 Left 2
WINDOW 39 0 0 Left 2
SYMATTR InstName V5
SYMATTR Value {R5*1e-3}
SYMBOL source-V -1056 48 R0
WINDOW 3 36 62 Left 2
WINDOW 123 0 0 Left 2
WINDOW 39 0 0 Left 2
SYMATTR InstName V6
SYMATTR Value {R7*1e-3}
TEXT -1184 -664 Left 2 !; Vtri = R5/R6*Vrm\n; --------------------------\n; In this equation, Vrm is the comparator output voltage \n; above or below the reference voltage. For example, in\n; our system the comparator output will be either 5V or \n; 0V. Because this circuit employs a 2.5V reference, V1 \n; is equal to 2.5V\n.param Vrm = 2.5V\n \n.param R6 = 10k    ; oder größer\n.param Vtri = 2.1V   \n.param R5 = {(Vtri*R6)/Vrm}\n; --------------------------\n; somit kann bei AnalogIn=[-2...2V] niemals \n; p=100%  erreicht werden!!\n \n; PWM frequenz festlegen\n; --------------------------\n.param C3 = 100n\n.param ft = 500\n.param R7 = {R6/ ( ft*4*R5*C3 )}
TEXT -1192 -752 Left 2 !.tran {5/ft} uic
TEXT -1192 -728 Left 2 !.options plotwinsize = 0
TEXT -784 -752 Left 2 !.param Vpop = 5V
TEXT -1120 200 Left 2 !.model mysw SW(Ron=1m Roff=100Meg Vt=0 Vh=-.5 )
RECTANGLE Normal -560 -32 -1216 -784 2
