Version 4
SHEET 1 1556 680
WIRE 1200 -752 1168 -752
WIRE 1216 -752 1200 -752
WIRE 1200 -704 1168 -704
WIRE 1216 -704 1200 -704
WIRE 1200 -656 1168 -656
WIRE 1216 -656 1200 -656
WIRE 320 -560 288 -560
WIRE 336 -560 320 -560
WIRE 480 -560 432 -560
WIRE 592 -560 544 -560
WIRE 208 -480 208 -496
WIRE 176 -464 144 -464
WIRE 512 -464 512 -480
WIRE 288 -448 288 -560
WIRE 288 -448 240 -448
WIRE 336 -448 288 -448
WIRE 432 -448 432 -560
WIRE 432 -448 416 -448
WIRE 480 -448 432 -448
WIRE 176 -432 144 -432
WIRE 592 -432 592 -560
WIRE 592 -432 544 -432
WIRE 656 -432 592 -432
WIRE 288 -416 288 -448
WIRE 480 -416 448 -416
WIRE 208 -400 208 -416
WIRE 512 -384 512 -400
WIRE 752 -368 704 -368
WIRE 784 -368 752 -368
WIRE 704 -336 704 -368
WIRE 1072 -336 976 -336
WIRE 144 -304 144 -432
WIRE 288 -304 288 -336
WIRE 288 -304 144 -304
WIRE 336 -304 288 -304
WIRE 592 -304 592 -432
WIRE 592 -304 416 -304
WIRE 976 -288 976 -336
WIRE 1072 -288 1072 -336
WIRE 704 -240 704 -256
WIRE 1072 -192 1072 -208
WIRE 976 -144 976 -208
FLAG 1200 -704 Vop
FLAG 208 -496 Vop
FLAG 512 -480 Vop
FLAG 448 -416 0
FLAG 704 -240 0
FLAG 752 -368 C2_in_uF
FLAG 208 -400 -Vop
FLAG 512 -384 -Vop
FLAG 1200 -752 -Vop
FLAG 432 -560 Vc
FLAG 976 -144 0
FLAG 1072 -192 0
FLAG 320 -560 square
FLAG 656 -432 tri
FLAG 144 -464 ref
FLAG 1200 -656 ref
SYMBOL source-Vmarker 1168 -704 R0
WINDOW 3 -61 -2 Center 2
SYMATTR Value V={Vop}
SYMATTR InstName U5
SYMBOL EXTRA\\ExtraOpamps\\LM358_ST 208 -448 R0
WINDOW 3 -39 93 Left 2
SYMATTR InstName U6
SYMBOL res 272 -432 R0
SYMATTR InstName R7
SYMATTR Value {R20}
SYMBOL res 320 -288 R270
WINDOW 0 25 56 VTop 2
WINDOW 3 7 56 VBottom 2
SYMATTR InstName R8
SYMATTR Value {R10}
SYMBOL res 320 -432 R270
WINDOW 0 25 56 VTop 2
WINDOW 3 7 56 VBottom 2
SYMATTR InstName R9
SYMATTR Value {Rt}
SYMBOL cap 480 -544 R270
WINDOW 0 32 32 VTop 2
WINDOW 3 0 32 VBottom 2
WINDOW 39 70 34 VTop 2
SYMATTR InstName C3
SYMATTR Value {C2}
SYMATTR SpiceLine Rser=10 Rpar=100meg
SYMBOL source-V 704 -352 R0
WINDOW 3 36 62 Left 2
WINDOW 123 0 0 Left 2
WINDOW 39 0 0 Left 2
SYMATTR Value {C2}
SYMATTR InstName V2
SYMBOL source-Vmarker 1168 -752 R0
WINDOW 3 -61 -2 Center 2
SYMATTR Value V={-Vop}
SYMATTR InstName U7
SYMBOL EXTRA\\AudioOpamp\\TI\\OPA2613_TI 512 -432 R0
SYMATTR InstName U8
SYMBOL source-V 976 -304 R0
WINDOW 3 -18 197 Left 2
WINDOW 123 0 0 Left 2
WINDOW 39 0 0 Left 2
SYMATTR InstName V1
SYMATTR Value SINE(0 1 1000k)
SYMBOL res 1056 -304 R0
SYMATTR InstName R1
SYMATTR Value 10
SYMBOL source-Vmarker 1168 -656 R0
WINDOW 3 -61 -2 Center 2
SYMATTR Value V={ref}
SYMATTR InstName U1
TEXT 1044 -800 Left 2 !.tran 3m
TEXT 392 -896 Left 2 ;http://www.play-hookey.com/analog/generators/triangle_waveform_generator.html
TEXT 200 -216 Left 2 !.param Vop = 10V\n.param ref = 0V\n \n; fout = 1/(4*Rt*R10*C2) * R20/R10\n; R10 < R20\n.param R10 = 22k\n.param R20 = 25k\n.param Rt = 10k\n.param  C2 = 1/(4*Rt*R10*fout) * R20/R10\n.param fout=100
TEXT 392 -656 Left 2 !.ic V(Vc)=.100m
