Version 4
SHEET 1 936 680
WIRE -1456 -672 -1504 -672
WIRE -1424 -672 -1456 -672
WIRE -1296 -672 -1344 -672
WIRE -1264 -672 -1296 -672
WIRE -1136 -672 -1184 -672
WIRE -1104 -672 -1136 -672
WIRE -976 -672 -1024 -672
WIRE -944 -672 -976 -672
WIRE -800 -672 -832 -672
WIRE -784 -672 -800 -672
WIRE -608 -672 -672 -672
WIRE -592 -672 -608 -672
WIRE -368 -672 -400 -672
WIRE -256 -672 -288 -672
WIRE -208 -672 -256 -672
WIRE -176 -672 -208 -672
WIRE 32 -672 0 -672
WIRE 48 -672 32 -672
WIRE -672 -656 -672 -672
WIRE -1504 -640 -1504 -672
WIRE -1344 -640 -1344 -672
WIRE -1184 -640 -1184 -672
WIRE -1024 -640 -1024 -672
WIRE -832 -640 -832 -672
WIRE -256 -640 -256 -672
WIRE 32 -624 0 -624
WIRE 48 -624 32 -624
WIRE 32 -576 0 -576
WIRE 48 -576 32 -576
WIRE -1504 -544 -1504 -560
WIRE -1344 -544 -1344 -560
WIRE -1184 -544 -1184 -560
WIRE -1024 -544 -1024 -560
WIRE -832 -544 -832 -560
WIRE -672 -544 -672 -576
WIRE -256 -544 -256 -576
WIRE 16 -512 -16 -512
WIRE 32 -512 16 -512
WIRE -608 -480 -672 -480
WIRE -592 -480 -608 -480
WIRE -800 -464 -832 -464
WIRE -784 -464 -800 -464
WIRE -672 -464 -672 -480
WIRE -832 -432 -832 -464
WIRE -672 -352 -672 -384
WIRE -832 -336 -832 -352
WIRE -1408 -320 -1424 -320
WIRE -1408 -304 -1408 -320
WIRE -1504 -288 -1536 -288
WIRE -1440 -288 -1504 -288
WIRE -1328 -272 -1376 -272
WIRE -1232 -272 -1328 -272
WIRE -1120 -272 -1152 -272
WIRE -1072 -272 -1120 -272
WIRE -976 -272 -1008 -272
WIRE -1440 -256 -1488 -256
WIRE -1408 -224 -1408 -240
WIRE -1408 -224 -1424 -224
WIRE -1056 -176 -1072 -176
WIRE -1056 -160 -1056 -176
WIRE -1120 -144 -1120 -272
WIRE -1088 -144 -1120 -144
WIRE -1600 -128 -1632 -128
WIRE -1488 -128 -1488 -256
WIRE -1488 -128 -1520 -128
WIRE -1456 -128 -1488 -128
WIRE -1328 -128 -1328 -272
WIRE -1328 -128 -1376 -128
WIRE -976 -128 -976 -272
WIRE -976 -128 -1024 -128
WIRE -1088 -112 -1120 -112
WIRE -1056 -80 -1056 -96
WIRE -1056 -80 -1072 -80
WIRE -1632 -16 -1632 -128
WIRE -976 -16 -976 -128
WIRE -976 -16 -1632 -16
FLAG -256 -544 0
FLAG -208 -672 pwfil2
FLAG -400 -672 0
FLAG 32 -624 vref
FLAG -832 -544 0
FLAG -1344 -544 0
FLAG -1296 -672 R6_in_k
FLAG -1024 -544 0
FLAG -976 -672 Vtri
FLAG -1184 -544 0
FLAG -1136 -672 R5_in_k
FLAG -1504 -544 0
FLAG -1456 -672 R7_in_k
FLAG -800 -672 V+
FLAG -672 -544 0
FLAG -608 -672 up
FLAG -672 -352 0
FLAG -608 -480 lo
FLAG -832 -336 0
FLAG -800 -464 Vrm
FLAG 32 -576 +10V
FLAG 32 -672 vref2
FLAG -1056 -176 +10V
FLAG -976 -272 int1
FLAG -1408 -320 +10V
FLAG -1056 -80 -10V
FLAG -1408 -224 -10V
FLAG 16 -512 -10V
FLAG -1504 -288 vref2
FLAG -1120 -112 vref2
SYMBOL res -384 -656 R270
WINDOW 0 25 56 VTop 2
WINDOW 3 7 56 VBottom 2
SYMATTR InstName R1
SYMATTR Value 1k
SYMBOL cap -272 -640 R0
SYMATTR InstName C1
SYMATTR Value 100n
SYMBOL source-Vmarker 0 -624 R0
WINDOW 3 -61 -2 Center 2
SYMATTR Value V=2.5V
SYMATTR InstName U1
SYMBOL source-V -832 -656 R0
WINDOW 3 36 62 Left 2
WINDOW 123 0 0 Left 2
WINDOW 39 0 0 Left 2
SYMATTR InstName V1
SYMATTR Value 5
SYMBOL source-V -1344 -656 R0
WINDOW 3 36 62 Left 2
WINDOW 123 0 0 Left 2
WINDOW 39 0 0 Left 2
SYMATTR InstName V2
SYMATTR Value {R6*1e-3}
SYMBOL source-V -1024 -656 R0
WINDOW 3 36 62 Left 2
WINDOW 123 0 0 Left 2
WINDOW 39 0 0 Left 2
SYMATTR InstName V3
SYMATTR Value {R5/R6*Vrm}
SYMBOL source-V -1184 -656 R0
WINDOW 3 36 62 Left 2
WINDOW 123 0 0 Left 2
WINDOW 39 0 0 Left 2
SYMATTR InstName V4
SYMATTR Value {R5*1e-3}
SYMBOL source-V -1504 -656 R0
WINDOW 3 36 62 Left 2
WINDOW 123 0 0 Left 2
WINDOW 39 0 0 Left 2
SYMATTR InstName V5
SYMATTR Value {R7*1e-3}
SYMBOL bv -672 -672 R0
SYMATTR InstName B1
SYMATTR Value V=V(vtri)+V(Vrm)
SYMBOL bv -672 -480 R0
SYMATTR InstName B2
SYMATTR Value V=-(V(vtri)-V(Vrm))
SYMBOL source-V -832 -448 R0
WINDOW 3 36 62 Left 2
WINDOW 123 0 0 Left 2
WINDOW 39 0 0 Left 2
SYMATTR InstName V6
SYMATTR Value {Vrm}
SYMBOL source-Vmarker 0 -576 R0
WINDOW 3 -61 -2 Center 2
SYMATTR Value V=10V
SYMATTR InstName U3
SYMBOL source-Vmarker 0 -672 R0
WINDOW 3 -61 -2 Center 2
SYMATTR Value V=4
SYMATTR InstName U4
SYMBOL cap -1072 -256 R270
WINDOW 0 32 32 VTop 2
WINDOW 3 0 32 VBottom 2
SYMATTR InstName C2
SYMATTR Value 0.8µ
SYMBOL EXTRA\\AudioOpamp\\TI\\OPA2613_TI -1056 -128 R0
WINDOW 3 -160 67 Left 2
SYMATTR InstName U5
SYMBOL EXTRA\\AudioOpamp\\TI\\OPA2613_TI -1408 -272 R0
WINDOW 3 -41 77 Left 2
SYMATTR InstName U6
SYMBOL source-Vmarker -16 -512 R0
WINDOW 3 -61 -2 Center 2
SYMATTR Value V=0
SYMATTR InstName U7
SYMBOL res -1248 -256 R270
WINDOW 0 25 56 VTop 2
WINDOW 3 7 56 VBottom 2
SYMATTR InstName R6
SYMATTR Value 1k
SYMBOL res -1472 -144 M90
WINDOW 0 7 56 VBottom 2
WINDOW 3 25 56 VTop 2
SYMATTR InstName R7
SYMATTR Value 20k
SYMBOL res -1616 -144 M90
WINDOW 0 7 56 VBottom 2
WINDOW 3 25 56 VTop 2
SYMATTR InstName R8
SYMATTR Value 5k
TEXT -1568 -504 Left 2 !.model mysw SW(Ron=1m Roff=100Meg Vt=0 Vh=-.5 )
TEXT -1634 -10 Left 2 !.tran 100m
TEXT -872 -216 Left 2 !; Vtri = R5/R6*Vrm\n; --------------------------\n; In this equation, Vrm is the comparator output voltage \n; above or below the reference voltage. For example, in\n; our system the comparator output will be either 5V or \n; 0V. Because this circuit employs a 2.5V reference, V1 \n; is equal to 2.5V\n.param Vrm = 2.5V\n \n.param R6 = 20k    ; oder größer\n.param Vtri = 2.1V   \n.param R5 = {(Vtri*R6)/Vrm}\n; --------------------------\n; somit kann bei AnalogIn=[-2...2V] niemals \n; p=100%  erreicht werden!!\n \n; PWM frequenz festlegen\n; --------------------------\n.param C3 = 100n\n.param ft = 500\n.param R7 = {R6/ ( ft*4*R5*C3 )}
