Version 4
SHEET 1 880 680
WIRE -1776 -1168 -1776 -1184
WIRE -1728 -1168 -1728 -1184
WIRE -1872 -1072 -1904 -1072
WIRE -1776 -1072 -1776 -1104
WIRE -1776 -1072 -1792 -1072
WIRE -1696 -1072 -1776 -1072
WIRE -1872 -1040 -1904 -1040
WIRE -1728 -1040 -1728 -1104
WIRE -1728 -1040 -1792 -1040
WIRE -1696 -1040 -1728 -1040
WIRE -2240 -896 -2256 -896
WIRE -2176 -896 -2192 -896
WIRE -2352 -832 -2352 -880
WIRE -2240 -832 -2352 -832
WIRE -2176 -832 -2176 -896
WIRE -2176 -832 -2192 -832
WIRE -2144 -832 -2176 -832
WIRE -2032 -832 -2064 -832
WIRE -2000 -832 -2032 -832
WIRE -1888 -832 -1920 -832
WIRE -1536 -832 -1552 -832
WIRE -1376 -832 -1456 -832
WIRE -944 -816 -960 -816
WIRE -912 -816 -944 -816
WIRE -896 -816 -912 -816
WIRE -784 -816 -816 -816
WIRE -736 -816 -784 -816
WIRE -624 -816 -656 -816
WIRE -496 -816 -624 -816
WIRE -480 -816 -496 -816
WIRE -784 -768 -784 -816
WIRE -624 -768 -624 -816
WIRE -1968 -752 -1968 -768
WIRE -2032 -736 -2032 -832
WIRE -2000 -736 -2032 -736
WIRE -1472 -736 -1472 -752
WIRE -1888 -720 -1888 -832
WIRE -1888 -720 -1936 -720
WIRE -1680 -720 -1680 -816
WIRE -1680 -720 -1888 -720
WIRE -1664 -720 -1680 -720
WIRE -1552 -720 -1552 -832
WIRE -1552 -720 -1584 -720
WIRE -1504 -720 -1552 -720
WIRE -2144 -704 -2224 -704
WIRE -2032 -704 -2064 -704
WIRE -2000 -704 -2032 -704
WIRE -1376 -704 -1376 -832
WIRE -1376 -704 -1440 -704
WIRE -1344 -704 -1376 -704
WIRE -1280 -704 -1344 -704
WIRE -1232 -704 -1280 -704
WIRE -1120 -704 -1168 -704
WIRE -1504 -688 -1536 -688
WIRE -2352 -672 -2352 -832
WIRE -1968 -672 -1968 -688
WIRE -784 -672 -784 -704
WIRE -624 -672 -624 -704
WIRE -2032 -656 -2032 -704
WIRE -1472 -656 -1472 -672
WIRE -1280 -640 -1280 -704
WIRE -1232 -640 -1280 -640
WIRE -1120 -640 -1168 -640
WIRE -1536 -624 -1536 -688
WIRE -2352 -560 -2352 -592
WIRE -2032 -544 -2032 -576
WIRE -2224 -464 -2224 -704
WIRE -1744 -464 -2224 -464
WIRE -1712 -464 -1744 -464
WIRE -1344 -464 -1664 -464
WIRE -1280 -464 -1344 -464
WIRE -1232 -464 -1280 -464
WIRE -1120 -464 -1168 -464
WIRE -944 -464 -960 -464
WIRE -912 -464 -944 -464
WIRE -896 -464 -912 -464
WIRE -768 -464 -816 -464
WIRE -656 -464 -688 -464
WIRE -496 -464 -656 -464
WIRE -480 -464 -496 -464
WIRE -1744 -416 -1744 -464
WIRE -1712 -416 -1744 -416
WIRE -1616 -416 -1664 -416
WIRE -1280 -400 -1280 -464
WIRE -1232 -400 -1280 -400
WIRE -1120 -400 -1168 -400
WIRE -656 -400 -656 -464
WIRE -656 -304 -656 -320
FLAG -2352 -560 0
FLAG -1968 -672 V-
FLAG -1968 -768 V+
FLAG -2032 -544 0
FLAG -1680 -816 Error
IOPIN -1680 -816 Out
FLAG -2352 -880 W
IOPIN -2352 -880 Out
FLAG -784 -672 0
FLAG -1472 -656 V-
FLAG -1472 -752 V+
FLAG -1536 -624 0
FLAG -1344 -704 Pl
FLAG -624 -672 0
FLAG -1344 -464 M
FLAG -656 -304 0
FLAG -496 -816 Y1
FLAG -496 -464 Y2
FLAG -912 -784 0
FLAG -912 -432 0
FLAG -944 -816 P1
FLAG -944 -464 P2
FLAG -1120 -704 P1
FLAG -1120 -640 P2
FLAG -1120 -464 Y1
FLAG -1120 -400 Y2
FLAG -1696 -1072 V+
FLAG -1696 -1040 V-
FLAG -1728 -1184 0
FLAG -1776 -1184 0
FLAG -2256 -896 0
FLAG -1616 -416 W
IOPIN -1616 -416 Out
SYMBOL voltage -2352 -688 R0
WINDOW 123 24 124 Left 2
WINDOW 39 0 0 Left 2
WINDOW 3 13 -71 Left 2
SYMATTR Value2 AC 1
SYMATTR Value PULSE(0 1 300u 100n)
SYMATTR InstName V1
SYMBOL res -1904 -848 R90
WINDOW 0 0 56 VBottom 2
WINDOW 3 32 56 VTop 2
SYMATTR InstName R1
SYMATTR Value 1k
SYMBOL res -2048 -848 R90
WINDOW 0 0 56 VBottom 2
WINDOW 3 32 56 VTop 2
SYMATTR InstName R2
SYMATTR Value 1k
SYMBOL res -2048 -720 R90
WINDOW 0 0 56 VBottom 2
WINDOW 3 32 56 VTop 2
SYMATTR InstName R3
SYMATTR Value 1k
SYMBOL res -2016 -560 R180
WINDOW 0 36 76 Left 2
WINDOW 3 36 40 Left 2
SYMATTR InstName R4
SYMATTR Value 1k
SYMBOL res -800 -832 R90
WINDOW 0 0 56 VBottom 2
WINDOW 3 32 56 VTop 2
SYMATTR InstName R7
SYMATTR Value 1.2k
SYMBOL cap -800 -768 R0
SYMATTR InstName C1
SYMATTR Value 220n
SYMBOL res -1568 -736 R90
WINDOW 0 0 56 VBottom 2
WINDOW 3 32 56 VTop 2
SYMATTR InstName R6
SYMATTR Value {Rm}
SYMBOL EIT_Semiconductors\\op_3 -1472 -704 R0
WINDOW 123 -98 137 Left 2
WINDOW 3 -133 119 Left 2
SYMATTR Value2 FT=10Meg SR=1000
SYMATTR Value Vp={Vpw} Vm=-{Vpw} Ilim={Ilim}
SYMATTR InstName U1
SYMBOL EIT_Semiconductors\\op_3 -1968 -720 R0
WINDOW 123 -19 171 Left 2
WINDOW 3 -16 145 Left 2
SYMATTR InstName U2
SYMBOL res -1440 -848 R90
WINDOW 0 0 56 VBottom 2
WINDOW 3 32 56 VTop 2
SYMATTR InstName R5
SYMATTR Value {Rf}
SYMBOL Misc\\jumper -1200 -704 R0
SYMATTR InstName X1
SYMBOL cap -640 -768 R0
SYMATTR InstName C2
SYMATTR Value 220n
SYMBOL res -640 -832 R90
WINDOW 0 0 56 VBottom 2
WINDOW 3 32 56 VTop 2
SYMATTR InstName R8
SYMATTR Value 1.2k
SYMBOL ind -800 -480 R90
WINDOW 0 6 56 VBottom 2
WINDOW 3 30 56 VTop 2
SYMATTR InstName L1
SYMATTR Value 170µ
SYMBOL res -784 -448 R270
WINDOW 0 25 56 VTop 2
WINDOW 3 7 56 VBottom 2
SYMATTR InstName R9
SYMATTR Value 3.5
SYMBOL res -672 -416 R0
SYMATTR InstName R10
SYMATTR Value .1
SYMBOL MDB_sym\\isoR -912 -800 R0
WINDOW 0 9 10 Invisible 2
SYMATTR InstName R11
SYMBOL MDB_sym\\isoR -912 -448 R0
WINDOW 0 9 10 Invisible 2
SYMATTR InstName R12
SYMBOL Misc\\jumper -1200 -464 R0
SYMATTR InstName X2
SYMBOL source-Vmarker -1904 -1072 R0
SYMATTR Value V={Vpw}
SYMATTR InstName U3
SYMBOL source-Vmarker -1904 -1040 R0
SYMATTR Value V={-Vpw}
SYMATTR InstName U4
SYMBOL res -1776 -1088 R90
WINDOW 0 7 56 VBottom 2
WINDOW 3 25 56 VTop 2
SYMATTR InstName R13
SYMATTR Value .1
SYMBOL res -1776 -1056 R90
WINDOW 0 7 56 VBottom 2
WINDOW 3 25 56 VTop 2
SYMATTR InstName R14
SYMATTR Value .1
SYMBOL cap -1792 -1168 R0
SYMATTR InstName C3
SYMATTR Value 1000µ
SYMBOL cap -1744 -1168 R0
SYMATTR InstName C4
SYMATTR Value 1000µ
SYMBOL MDB_sym\\jumper -2208 -960 R0
SYMATTR InstName X3
SYMBOL MDB_sym\\jumper -1680 -480 R0
SYMATTR InstName X4
TEXT -2184 -1208 Left 2 ;.include LM675.sub
TEXT -1584 -1128 Left 2 ;Kp=R2/R1+Cd/Ci\nKi=1/(R1*Ci)\nKd=R2*Cd
TEXT -1032 -1136 Left 2 !.ac oct 100 1 10meg
TEXT -1600 -1264 Left 2 ;.inc Z:\\media\\data\\CODES\\LTSpice_projects\\regelungstechnik_Symbole\\PT2.sub
TEXT -2184 -1168 Left 2 ;.include NJM4580_2.lib
TEXT -2192 -1320 Left 2 ;.include NJM4580_2.lib\n.include LM675.sub
TEXT -1592 -1320 Left 2 ;.lib Z:\\home\\mainster\\CODES_local\\LTSpice_projects\\regelungstechnik_Symbole\\PT2.sub
TEXT -1416 -1032 Left 2 !.param Rm = 1k\n.param Rf = Kp*Rm\n.param Ci = 1/(Rm*Ki)
TEXT -1416 -1120 Left 2 !.param Kp = 36\n.param Ki = 7690
TEXT -1040 -1096 Left 2 ;.tran 2m
TEXT -1112 -1048 Left 2 ;.step param Kp list 1 10 100
TEXT -1120 -1000 Left 2 !.param Vpw = 20V\n.param Ilim = 20A
TEXT -1600 -1232 Left 2 !.inc Z:\\home\\mainster\\CODES_local\\LTSpice_projects\\lib_mdb\\MDB_sub\\LM675.lib
RECTANGLE Normal -528 -608 -928 -864 2
RECTANGLE Normal -528 -256 -928 -512 2
