Version 4
SHEET 1 880 680
WIRE -128 16 -272 16
WIRE -96 16 -128 16
WIRE -128 64 -160 64
WIRE -96 64 -128 64
WIRE 144 112 48 112
WIRE 176 112 144 112
WIRE -272 144 -272 16
WIRE -160 144 -160 64
WIRE 48 144 48 112
WIRE -272 256 -272 224
WIRE -160 256 -160 224
WIRE 48 256 48 224
FLAG -272 256 0
FLAG -160 256 0
FLAG 48 256 0
FLAG -128 64 hul
FLAG -128 16 base
FLAG 144 112 mod
SYMBOL source-V -160 128 R0
WINDOW 3 -8 204 Left 0
WINDOW 123 0 0 Left 0
WINDOW 39 0 0 Left 0
SYMATTR Value PWL file=Z:\media\data\CODES\LTSpice_projects\pwl_file1.txt
SYMATTR InstName V1
SYMBOL Function-V 48 128 R0
SYMATTR InstName B1
SYMATTR Value V=V(hul)*V(base)
SYMBOL source-V -272 128 R0
WINDOW 3 -60 189 Left 0
WINDOW 123 0 0 Left 0
WINDOW 39 0 0 Left 0
SYMATTR Value SINE(0 1 1k)
SYMATTR InstName V2
TEXT -334 352 Left 0 !.tran 100m
