*version 8.0 4143679545
u 630
U? 17
S? 5
Ib? 2
I? 2
@libraries
@analysis
.TRAN 1 0 0 0
+0 40u
+1 40u
.PROBE 0 0 1 1 0 3
@targets
@attributes
@translators
a 0 u 13 0 0 0 hln 100 PCBOARDS=PCB
a 0 u 13 0 0 0 hln 100 PSPICE=PSPICE
a 0 u 13 0 0 0 hln 100 XILINX=XILINX
@setup
unconnectedPins 0
connectViaLabel 0
connectViaLocalLabels 0
NoStim4ExtIFPortsWarnings 1
AutoGenStim4ExtIFPorts 1
@index
pageloc 1 0 10480 
@status
n 0 112:07:23:17:39:19;1345736359 e 
s 2832 112:07:29:09:02:52;1346223772 e 
*page 1 0 1520 970 iA
@ports
port 162 GND 50 70 h
port 167 GND 50 470 h
port 577 GND 760 280 h
port 326 GND 470 300 h
@parts
part 8 7400 330 50 h
a 0 sp 11 0 40 50 hln 100 PART=7400
a 0 s 0:13 0 0 0 hln 100 PKGTYPE=
a 0 a 0:13 0 0 0 hln 100 PKGREF=U7
a 0 ap 9 0 40 0 hln 100 REFDES=U7
part 11 7400 330 370 h
a 0 sp 11 0 40 50 hln 100 PART=7400
a 0 s 0:13 0 0 0 hln 100 PKGTYPE=
a 0 a 0:13 0 0 0 hln 100 PKGREF=U10
a 0 ap 9 0 40 0 hln 100 REFDES=U10
part 3 7400 150 150 h
a 0 sp 11 0 40 50 hln 100 PART=7400
a 0 s 0:13 0 0 0 hln 100 PKGTYPE=
a 0 a 0:13 0 0 0 hln 100 PKGREF=U2
a 0 ap 9 0 40 0 hln 100 REFDES=U2
part 5 7400 150 270 h
a 0 sp 11 0 40 50 hln 100 PART=7400
a 0 s 0:13 0 0 0 hln 100 PKGTYPE=
a 0 a 0:13 0 0 0 hln 100 PKGREF=U4
a 0 ap 9 0 40 0 hln 100 REFDES=U4
part 9 7400 330 150 h
a 0 sp 11 0 40 50 hln 100 PART=7400
a 0 s 0:13 0 0 0 hln 100 PKGTYPE=
a 0 a 0:13 0 0 0 hln 100 PKGREF=U8
a 0 ap 9 0 40 0 hln 100 REFDES=U8
part 10 7400 330 270 h
a 0 sp 11 0 40 50 hln 100 PART=7400
a 0 s 0:13 0 0 0 hln 100 PKGTYPE=
a 0 a 0:13 0 0 0 hln 100 PKGREF=U9
a 0 ap 9 0 40 0 hln 100 REFDES=U9
part 7 7400 240 380 h
a 0 sp 11 0 40 50 hln 100 PART=7400
a 0 s 0:13 0 0 0 hln 100 PKGTYPE=
a 0 a 0:13 0 0 0 hln 100 PKGREF=U6
a 0 ap 9 0 40 0 hln 100 REFDES=U6
part 4 7400 240 40 h
a 0 sp 11 0 40 50 hln 100 PART=7400
a 0 s 0:13 0 0 0 hln 100 PKGTYPE=
a 0 a 0:13 0 0 0 hln 100 PKGREF=U3
a 0 ap 9 0 40 0 hln 100 REFDES=U3
part 2 7400 150 50 h
a 0 sp 11 0 40 50 hln 100 PART=7400
a 0 s 0:13 0 0 0 hln 100 PKGTYPE=
a 0 a 0:13 0 0 0 hln 100 PKGREF=U1
a 0 ap 9 0 40 0 hln 100 REFDES=U1
part 6 7400 150 370 h
a 0 sp 11 0 40 50 hln 100 PART=7400
a 0 s 0:13 0 0 0 hln 100 PKGTYPE=
a 0 a 0:13 0 0 0 hln 100 PKGREF=U5
a 0 ap 9 0 40 0 hln 100 REFDES=U5
part 310 7400 560 200 H
a 0 sp 11 0 40 50 hln 100 PART=7400
a 0 s 0:13 0 0 0 hln 100 PKGTYPE=
a 0 x 0:13 0 0 0 hln 100 PKGREF=U11
a 0 xp 9 0 40 0 hln 100 REFDES=U11
part 318 7408 460 210 H
a 0 sp 11 0 40 50 hln 100 PART=7408
a 0 s 0:13 0 0 0 hln 100 PKGTYPE=
a 0 x 0:13 0 0 0 hln 100 PKGREF=U12
a 0 xp 9 0 40 0 hln 100 REFDES=U12
part 548 Ib 620 230 u
a 0 sp 0:11 0 0 50 hln 100 PART=Ib
a 0 s 0:13 0 0 0 hln 100 PKGTYPE=
a 0 x 0:13 0 0 0 hln 100 PKGREF=I0
a 1 xp 9 0 38 28 hrn 100 REFDES=I0
a 1 u 13 0 30 16 hrn 100 DC=1mA
part 571 Strommesser 760 220 h
a 0 sp 0:11 0 0 50 hln 100 PART=Strommesser
a 0 x 0:13 0 0 0 hln 100 PKGREF=Iud
a 1 xp 9 0 6 24 hrn 100 REFDES=Iud
part 525 Schalter 630 30 h
a 0 sp 0:11 0 2 74 hln 100 PART=Schalter
a 0 s 0:13 0 0 0 hln 100 PKGTYPE=
a 0 a 0:13 0 0 0 hln 100 PKGREF=S1
a 0 ap 9 0 24 12 hln 100 REFDES=S1
a 0 u 0:13 0 40 56 hln 100 Ron=1
a 0 u 0:13 0 40 70 hlb 100 Schwelle=1.5V
a 0 u 13 13 34 58 hlb 100 invertiert=0
part 526 Schalter 630 90 U
a 0 sp 0:11 0 2 74 hln 100 PART=Schalter
a 0 s 0:13 0 0 0 hln 100 PKGTYPE=
a 0 a 0:13 0 0 0 hln 100 PKGREF=S2
a 0 ap 9 0 24 12 hln 100 REFDES=S2
a 0 u 0:13 0 32 62 hlb 100 Roff=1e12
a 0 u 0:13 0 40 0 hln 100 Ron=1
a 0 u 0:13 0 78 -12 hlb 100 Schwelle=1.5V
a 0 u 13 13 84 50 hlb 100 invertiert=1
part 529 Schalter 630 350 h
a 0 u 13 13 34 58 hlb 100 invertiert=1
a 0 sp 0:11 0 2 74 hln 100 PART=Schalter
a 0 s 0:13 0 0 0 hln 100 PKGTYPE=
a 0 u 0:13 0 40 56 hln 100 Ron=1
a 0 u 0:13 0 40 70 hlb 100 Schwelle=1.5V
a 0 a 0:13 0 0 0 hln 100 PKGREF=S3
a 0 ap 9 0 24 12 hln 100 REFDES=S3
part 530 Schalter 630 410 U
a 0 u 13 13 84 50 hlb 100 invertiert=0
a 0 sp 0:11 0 2 74 hln 100 PART=Schalter
a 0 s 0:13 0 0 0 hln 100 PKGTYPE=
a 0 u 0:13 0 32 62 hlb 100 Roff=1e12
a 0 u 0:13 0 40 0 hln 100 Ron=1
a 0 u 0:13 0 78 -12 hlb 100 Schwelle=1.5V
a 0 a 0:13 0 0 0 hln 100 PKGREF=S4
a 0 ap 9 0 24 12 hln 100 REFDES=S4
part 325 U-Puls 470 260 h
a 0 sp 0:11 0 0 10 hlb 100 PART=U-Puls
a 0 s 0:13 0 0 0 hln 100 PKGTYPE=
a 0 x 0:13 0 0 0 hln 100 PKGREF=Ur
a 1 xp 9 0 0 22 hrn 100 REFDES=Ur
a 0 u 13 13 36 30 hlb 100 TPERIODE=1
a 0 u 13 13 36 40 hlb 100 TPULS=1
a 0 u 13 13 36 50 hlb 100 TD=100n
part 166 U-Rechteck 50 430 h
a 0 sp 0:11 0 0 10 hlb 100 PART=U-Rechteck
a 0 s 0:13 0 0 0 hln 100 PKGTYPE=
a 0 x 0:13 0 0 0 hln 100 PKGREF=Uvco
a 1 xp 9 0 0 22 hrn 100 REFDES=Uvco
a 0 u 13 13 36 36 hlb 100 f=1Mega
part 157 U-Rechteck 50 30 h
a 0 sp 0:11 0 0 10 hlb 100 PART=U-Rechteck
a 0 s 0:13 0 0 0 hln 100 PKGTYPE=
a 0 x 0:13 0 0 0 hln 100 PKGREF=Us
a 1 xp 9 0 0 22 hrn 100 REFDES=Us
a 0 u 13 13 36 36 hlb 100 f=1.05Mega
part 1 titleblk 970 720 h
a 1 s 13 0 180 60 hcn 100 PAGETITLE=
a 1 s 13 0 340 95 hrn 100 PAGECOUNT=1
a 1 s 13 0 300 95 hrn 100 PAGENO=1
a 1 s 13 0 350 10 hcn 100 PAGESIZE=A
@conn
w 163
a 0 sr 0 0 0 0 hln 100 LABEL=Us
a 0 up 0:33 0 0 0 hln 100 V=
s 140 20 50 20 518
a 0 sr 3 0 95 18 hcn 100 LABEL=Us
s 50 20 50 30 160
s 230 20 140 20 145
a 0 up 33 0 215 19 hct 100 V=
s 230 40 230 20 143
s 240 40 230 40 141
s 140 50 140 20 149
s 150 50 140 50 147
w 138
a 0 sr 0 0 0 0 hln 100 LABEL=Uvco
a 0 up 0:33 0 0 0 hln 100 V=
s 140 420 50 420 524
a 0 sr 3 0 95 418 hcn 100 LABEL=Uvco
s 50 420 50 430 164
s 240 400 240 420 137
s 240 420 140 420 139
a 0 up 33 0 220 419 hct 100 V=
s 150 390 140 390 152
s 140 390 140 420 154
w 16
a 0 up 0:33 0 0 0 hln 100 LVL=
s 310 50 330 50 15
a 0 up 33 0 320 49 hct 100 LVL=
w 18
a 0 up 0:33 0 0 0 hln 100 LVL=
s 150 70 140 70 17
s 140 70 140 100 21
s 140 100 250 100 23
a 0 up 33 0 195 99 hct 100 LVL=
s 250 100 250 160 25
s 250 160 220 160 27
w 14
a 0 up 0:33 0 0 0 hln 100 LVL=
s 220 60 230 60 279
s 150 150 140 150 29
s 140 150 140 120 31
s 140 120 230 120 33
a 0 up 33 0 185 119 hct 100 LVL=
s 230 60 240 60 459
s 230 120 230 60 35
w 39
a 0 up 0:33 0 0 0 hln 100 LVL=
s 220 380 230 380 282
s 230 380 240 380 462
s 230 380 230 320 40
s 230 320 140 320 43
a 0 up 33 0 185 319 hct 100 LVL=
s 140 320 140 290 45
s 140 290 150 290 47
w 50
a 0 up 0:33 0 0 0 hln 100 LVL=
s 150 370 140 370 49
s 140 370 140 340 51
s 140 340 250 340 53
a 0 up 33 0 195 339 hct 100 LVL=
s 250 340 250 280 55
s 250 280 220 280 57
w 70
a 0 up 0:33 0 0 0 hln 100 LVL=
s 330 70 320 70 69
s 320 70 320 100 71
s 320 100 430 100 73
a 0 up 33 0 375 99 hct 100 LVL=
s 430 100 430 160 75
s 430 160 400 160 77
w 95
a 0 up 0:33 0 0 0 hln 100 LVL=
s 330 370 320 370 94
s 320 370 320 340 96
s 320 340 430 340 98
a 0 up 33 0 375 339 hct 100 LVL=
s 430 340 430 280 100
s 430 280 400 280 102
w 105
a 0 up 0:33 0 0 0 hln 100 LVL=
s 310 390 330 390 104
a 0 up 33 0 320 389 hct 100 LVL=
w 119
a 0 sr 0 0 0 0 hln 100 LABEL=R
a 0 up 0:33 0 0 0 hln 100 LVL=
s 320 220 140 220 132
a 0 sr 3 0 230 218 hcn 100 LABEL=R
a 0 up 33 0 230 219 hct 100 LVL=
s 140 170 150 170 122
s 140 170 140 220 124
s 140 270 150 270 126
s 330 270 320 270 133
s 330 170 320 170 128
s 320 170 320 220 130
s 320 220 320 270 486
s 390 220 320 220 319
s 140 220 140 270 488
w 322
a 0 up 0:33 0 0 0 hln 100 LVL=
s 460 210 490 210 321
a 0 up 33 0 475 209 hct 100 LVL=
w 324
a 0 up 0:33 0 0 0 hln 100 V=
a 0 sr 0 0 0 0 hln 100 LABEL=D
a 0 up 0:33 0 0 0 hln 100 LVL=
s 570 380 660 380 540
a 0 up 33 0 595 379 hct 100 LVL=
a 0 sr 3 0 595 378 hcn 100 LABEL=D
a 0 up 33 0 595 379 hct 100 V=
s 400 380 410 380 79
a 0 up 33 0 490 379 hct 100 LVL=
s 410 380 570 380 500
s 410 380 410 320 81
s 410 320 320 320 83
s 320 320 320 290 85
s 320 290 330 290 87
s 570 380 570 220 114
s 570 220 560 220 116
w 601
a 0 up 0:33 0 0 0 hln 100 V=
s 700 350 690 350 557
s 690 90 700 90 553
s 700 90 700 270 555
a 0 up 33 0 702 180 hlt 100 V=
s 760 280 760 270 578
s 700 270 700 350 615
s 760 270 760 260 616
s 760 270 700 270 581
w 600
s 720 410 690 410 563
s 690 30 720 30 559
s 720 30 720 210 561
s 760 210 760 220 575
s 720 210 720 410 622
s 720 210 760 210 572
w 543
s 630 410 620 410 542
s 620 410 620 350 544
s 620 350 630 350 546
s 620 230 620 350 551
w 323
a 0 up 0:33 0 0 0 hln 100 V=
a 0 sr 0 0 0 0 hln 100 LABEL=U
a 0 up 0:33 0 0 0 hln 100 LVL=
s 570 60 660 60 527
a 0 up 33 0 595 59 hct 100 LVL=
a 0 sr 3 0 595 58 hcn 100 LABEL=U
a 0 up 33 0 595 59 hct 100 V=
s 400 60 410 60 59
a 0 up 33 0 490 59 hct 100 LVL=
s 410 60 570 60 491
s 410 60 410 120 61
s 410 120 320 120 63
s 320 120 320 150 65
s 320 150 330 150 67
s 570 60 570 200 108
s 570 200 560 200 110
s 660 60 690 60 532
w 535
s 630 30 620 30 534
s 620 30 620 90 536
s 620 90 630 90 538
s 620 90 620 190 589
w 328
a 0 sr 0:3 0 472 245 hln 100 LABEL=Ur
a 0 up 0:33 0 0 0 hln 100 V=
s 470 260 470 230 349
a 0 sr 3 0 472 245 hln 100 LABEL=Ur
a 0 up 33 0 472 246 hlt 100 V=
s 470 230 460 230 333
@junction
j 50 470
+ p 166 -
+ s 167
j 50 70
+ p 157 -
+ s 162
j 50 30
+ p 157 +
+ w 163
j 50 430
+ p 166 +
+ w 138
j 330 50
+ p 8 A
+ w 16
j 310 50
+ p 4 Y
+ w 16
j 150 70
+ p 2 B
+ w 18
j 220 160
+ p 3 Y
+ w 18
j 220 60
+ p 2 Y
+ w 14
j 240 60
+ p 4 B
+ w 14
j 150 150
+ p 3 A
+ w 14
j 230 60
+ w 14
+ w 14
j 220 380
+ p 6 Y
+ w 39
j 240 380
+ p 7 A
+ w 39
j 230 380
+ w 39
+ w 39
j 150 290
+ p 5 B
+ w 39
j 150 370
+ p 6 A
+ w 50
j 220 280
+ p 5 Y
+ w 50
j 330 70
+ p 8 B
+ w 70
j 400 160
+ p 9 Y
+ w 70
j 330 370
+ p 11 A
+ w 95
j 400 280
+ p 10 Y
+ w 95
j 330 390
+ p 11 B
+ w 105
j 310 390
+ p 7 Y
+ w 105
j 150 170
+ p 3 B
+ w 119
j 150 270
+ p 5 A
+ w 119
j 320 220
+ w 119
+ w 119
j 330 270
+ p 10 A
+ w 119
j 330 170
+ p 9 B
+ w 119
j 390 220
+ p 318 Y
+ w 119
j 140 220
+ w 119
+ w 119
j 490 210
+ p 310 Y
+ w 322
j 460 210
+ p 318 A
+ w 322
j 400 60
+ p 8 Y
+ w 323
j 410 60
+ w 323
+ w 323
j 330 150
+ p 9 A
+ w 323
j 560 200
+ p 310 A
+ w 323
j 570 60
+ w 323
+ w 323
j 400 380
+ p 11 Y
+ w 324
j 410 380
+ w 324
+ w 324
j 330 290
+ p 10 B
+ w 324
j 560 220
+ p 310 B
+ w 324
j 570 380
+ w 324
+ w 324
j 460 230
+ p 318 B
+ w 328
j 240 40
+ p 4 A
+ w 163
j 140 20
+ w 163
+ w 163
j 150 50
+ p 2 A
+ w 163
j 240 400
+ p 7 B
+ w 138
j 150 390
+ p 6 B
+ w 138
j 140 420
+ w 138
+ w 138
j 660 60
+ p 525 3
+ p 526 3
j 660 380
+ p 529 3
+ p 530 3
j 660 380
+ p 529 3
+ w 324
j 660 380
+ p 530 3
+ w 324
j 690 350
+ p 529 2
+ w 601
j 690 90
+ p 526 2
+ w 601
j 760 260
+ p 571 -
+ w 601
j 760 280
+ s 577
+ w 601
j 700 270
+ w 601
+ w 601
j 760 270
+ w 601
+ w 601
j 690 410
+ p 530 2
+ w 600
j 690 30
+ p 525 2
+ w 600
j 760 220
+ p 571 +
+ w 600
j 720 210
+ w 600
+ w 600
j 630 410
+ p 530 1
+ w 543
j 630 350
+ p 529 1
+ w 543
j 620 230
+ p 548 e
+ w 543
j 620 350
+ w 543
+ w 543
j 660 60
+ p 525 3
+ w 323
j 660 60
+ p 526 3
+ w 323
j 630 30
+ p 525 1
+ w 535
j 630 90
+ p 526 1
+ w 535
j 620 190
+ p 548 a
+ w 535
j 620 90
+ w 535
+ w 535
j 470 300
+ p 325 -
+ s 326
j 470 260
+ p 325 +
+ w 328
@attributes
a 0 s 0:13 0 0 0 hln 100 PAGETITLE=
a 0 s 0:13 0 0 0 hln 100 PAGENO=1
a 0 s 0:13 0 0 0 hln 100 PAGESIZE=A
a 0 s 0:13 0 0 0 hln 100 PAGECOUNT=1
@graphics
