Version 4
SHEET 1 880 680
WIRE -176 -288 -304 -288
WIRE 0 -288 -176 -288
WIRE 32 -288 0 -288
WIRE -304 -176 -304 -208
WIRE -176 -176 -176 -288
WIRE 0 -176 0 -288
WIRE -112 -128 -240 -128
WIRE -96 -128 -112 -128
WIRE -64 -128 -96 -128
WIRE -176 -48 -176 -80
WIRE -96 -48 -96 -128
WIRE -96 -48 -176 -48
WIRE -304 -16 -304 -80
WIRE -176 -16 -176 -48
WIRE 0 -16 0 -80
WIRE -304 128 -304 64
WIRE -176 128 -176 64
WIRE 0 128 0 64
FLAG 32 -288 Vplus
FLAG -176 128 0
FLAG 0 128 0
FLAG -304 128 0
FLAG -96 -128 B
SYMBOL EIT_Semiconductors\\pnp -240 -80 R180
SYMATTR InstName Q1
SYMATTR Value Px2
SYMBOL EIT_Semiconductors\\pnp -112 -80 R180
SYMATTR InstName Q2
SYMATTR Value Px2
SYMBOL res -320 -304 R0
SYMATTR InstName R1
SYMATTR Value {R1}
SYMBOL EIT_Semiconductors\\pnp -64 -80 M180
SYMATTR InstName Q3
SYMATTR Value Px2
SYMBOL res -192 -32 R0
WINDOW 3 38 64 Left 2
SYMATTR InstName R2
SYMATTR Value {R2}
SYMBOL res -16 -32 R0
SYMATTR InstName R3
SYMATTR Value {R3}
SYMBOL res -320 -32 R0
WINDOW 3 38 64 Left 2
SYMATTR InstName R4
SYMATTR Value {R4}
SYMBOL source-I 368 -48 R0
SYMATTR InstName I1
SYMBOL crtl-I-I 368 80 R0
SYMATTR InstName U1
SYMBOL crtl-I-I_INV 576 0 R0
SYMATTR InstName U2
SYMBOL bi 608 272 R90
WINDOW 0 -32 40 VBottom 2
WINDOW 3 32 40 VTop 2
SYMATTR InstName B1
TEXT -304 208 Left 2 !.param R1=500  R2=1k  R3=250  R4=25
