Version 4
SHEET 1 2024 680
WIRE 1488 -352 1344 -352
WIRE 1568 -352 1488 -352
WIRE 1664 -352 1568 -352
WIRE 1280 -272 1232 -272
WIRE 1328 -272 1280 -272
WIRE 1488 -272 1488 -352
WIRE 1568 -272 1568 -352
WIRE 1664 -272 1664 -352
WIRE 1232 -256 1232 -272
WIRE 1344 -256 1344 -352
WIRE 1328 -240 1328 -272
WIRE 1232 -160 1232 -176
WIRE 1488 -144 1488 -192
WIRE 1568 -144 1568 -192
WIRE 1664 -144 1664 -208
WIRE 1344 -128 1344 -176
FLAG 1232 -160 0
FLAG 1344 -128 0
FLAG 1280 -272 CTRL
FLAG 1664 -144 0
FLAG 1568 -144 0
FLAG 1488 -144 0
FLAG 1488 -352 no
SYMBOL source-V 1232 -272 M0
WINDOW 3 -84 155 Left 2
WINDOW 123 0 0 Left 2
WINDOW 39 0 0 Left 2
SYMATTR Value PULSE(-4.1 -10.01 10m 10m)
SYMATTR InstName V1
SYMBOL MDB_sym\\VoltageControlableResistor 1328 -272 R0
WINDOW 3 36 64 Left 2
SYMATTR InstName U1
SYMATTR SpiceModel VCR2
SYMATTR ModelFile MDB_sub/controlledResistors.sub
SYMBOL res 1472 -288 R0
SYMATTR InstName R1
SYMATTR Value 4k
SYMBOL ind 1552 -288 R0
WINDOW 3 39 68 Left 2
SYMATTR Value 100µ
SYMATTR InstName L1
SYMBOL cap 1648 -272 R0
WINDOW 3 24 61 Left 2
SYMATTR Value 100n IC=1
SYMATTR InstName C1
TEXT 1006 -98 Left 2 !.tran 100m
