Version 4
SHEET 1 880 1908
WIRE -1104 -752 -1136 -752
WIRE -1136 -736 -1136 -752
WIRE -1136 -656 -1136 -688
WIRE -944 -624 -992 -624
WIRE -1120 -608 -1152 -608
WIRE -1152 -592 -1152 -608
WIRE -992 -592 -992 -624
WIRE -1152 -512 -1152 -544
WIRE -992 -496 -992 -512
WIRE -1248 -384 -1280 -384
WIRE -1232 -384 -1248 -384
WIRE -1040 -320 -1296 -320
WIRE -992 -320 -1040 -320
WIRE -944 -320 -992 -320
WIRE -768 -320 -864 -320
WIRE -1296 -288 -1296 -320
WIRE -992 -288 -992 -320
WIRE -1168 -272 -1216 -272
WIRE -768 -272 -768 -320
WIRE -992 -208 -992 -224
WIRE -1296 -192 -1296 -208
WIRE -1216 -192 -1216 -224
WIRE -800 -144 -992 -144
WIRE -768 -144 -768 -192
WIRE -768 -144 -800 -144
WIRE -768 -128 -768 -144
WIRE -1168 -112 -1168 -272
WIRE -1088 -112 -1104 -112
WIRE -1056 -112 -1088 -112
WIRE -960 -112 -992 -112
WIRE -1168 -32 -1168 -64
WIRE -768 -16 -768 -48
WIRE -960 80 -1040 80
WIRE -1040 96 -1040 80
WIRE -960 96 -960 80
WIRE -1040 192 -1040 176
WIRE -960 192 -960 176
FLAG -992 -208 0
FLAG -1248 -384 Ve
FLAG -1040 -320 Vs
FLAG -768 -16 0
FLAG -992 -496 0
FLAG -1296 -192 0
FLAG -1216 -192 0
FLAG -800 -144 Rm
FLAG -960 192 0
FLAG -1040 192 0
FLAG -1216 -272 in
FLAG -1168 -32 0
FLAG -1088 -112 s1
FLAG -1152 -512 0
FLAG -1152 -608 meas1
FLAG -1136 -656 0
FLAG -1136 -752 mean
SYMBOL ind -960 -304 R270
WINDOW 0 5 56 VBottom 2
WINDOW 3 32 56 VTop 2
WINDOW 39 79 55 VBottom 2
SYMATTR InstName L1
SYMATTR Value {L1} ic=0
SYMBOL diode -976 -224 R180
WINDOW 0 24 64 Left 2
WINDOW 3 24 0 Left 2
SYMATTR InstName D1
SYMATTR Value Dx1
SYMBOL source-Vmarker -1280 -384 R0
SYMATTR Value V={Ve}
SYMATTR InstName U1
SYMBOL source-V -768 -288 R0
WINDOW 123 0 0 Left 2
WINDOW 39 28 52 Left 2
SYMATTR InstName V3
SYMATTR Value {Vbat}
SYMBOL res -784 -144 R0
SYMATTR InstName Rm
SYMATTR Value {Rm}
SYMBOL Digital\\diffschmitt -992 -64 R180
WINDOW 3 -16 -318 Left 2
SYMATTR InstName A1
SYMATTR Value Vt=0 Vh={VH} Vhigh=14 Vlow=0 Trise=1n Tfall=1n
SYMBOL source-Vmarker -960 -112 M0
SYMATTR Value V={Vref}
SYMATTR InstName U3
SYMBOL crtl-V-V -1296 -304 M0
SYMATTR InstName E1
SYMATTR Value 1
SYMBOL source-V -960 80 R0
WINDOW 123 0 0 Left 2
WINDOW 39 0 0 Left 2
SYMATTR InstName V2
SYMATTR Value PULSE(0 .1 {Tinit} 100p 100p {ton_calc} {Tcalc})
SYMBOL res -1024 80 M0
SYMATTR InstName R1
SYMATTR Value .1
SYMBOL source-V -992 -608 R0
WINDOW 123 0 0 Left 2
WINDOW 39 0 0 Left 2
SYMATTR InstName V4
SYMATTR Value SINE(0 1 20meg 0 0 0)
SYMBOL MDB_sym\\bvsmall -1168 -80 M0
SYMATTR InstName B1
SYMATTR Value V=delay(V(s1),{TLauf})
SYMBOL MDB_sym\\bvsmall -1152 -560 M0
SYMATTR InstName B2
SYMATTR Value V=if(V(rm)+.5-50m, TIME, 0)
SYMBOL MDB_sym\\bvsmall -1136 -704 M0
SYMATTR InstName B3
SYMATTR Value V=idt(I(L1)/TEND)
TEXT -632 -744 Left 2 !.model Dx D (Is={ID0/exp(VD0/VT)}\n.model Dx1 D (Vfwd=0.4 Ron=0.01 Roff=10meg)
TEXT -640 -664 Left 2 !.param Ve = 14V\n.param Vbat = 5V\n.param L1 = 108u\n.param VH = 50mV\n.param Vref = 0.1V\n.param Rm = 0.2\n \n.param Tcalc = 16u\n.param ton_calc = 6u\n.param tinit = 3u\n \n.param Vup=VH\n.param Vlo=-VH\n \n \n.param ID0 = 1.25A\n.param VD0=0.4V\n.param VT = 26mV
TEXT -1338 110 Left 2 !.tran 0 {TEND+init} {init}
TEXT -1168 40 Left 2 !.op
TEXT -632 -168 Left 2 !.ic V(Rm)=50mV\n.ic I(L1)=.25\n.ic V(in)=14V
TEXT -1384 -40 Left 2 !.param TLauf=1u
TEXT -1120 16 Left 2 ;.step param Tlauf list 10n 1u 2u
TEXT -1368 160 Left 2 !.param TEND=200u\n.param init=0
