Version 4
SHEET 1 976 1236
WIRE 16 -32 -16 -32
WIRE 128 -32 16 -32
WIRE 224 -32 128 -32
WIRE 640 -32 544 -32
WIRE 736 -32 640 -32
WIRE 640 -16 640 -32
WIRE 16 16 16 -32
WIRE 224 16 224 -32
WIRE 560 96 480 96
WIRE 640 96 640 64
WIRE 640 96 560 96
WIRE 720 96 640 96
WIRE 800 96 720 96
WIRE 16 128 16 96
WIRE 224 128 224 96
WIRE 560 144 560 96
WIRE 720 144 720 96
WIRE 112 176 80 176
WIRE 160 176 112 176
WIRE 480 192 480 96
WIRE 496 192 480 192
WIRE 800 192 800 96
WIRE 800 192 784 192
WIRE 16 256 16 224
WIRE 112 256 112 176
WIRE 112 256 16 256
WIRE 16 288 16 256
WIRE 560 304 560 240
WIRE 720 304 720 240
WIRE 224 320 224 224
WIRE 16 384 16 368
WIRE 16 384 0 384
WIRE 16 400 16 384
WIRE 560 400 560 384
WIRE 560 400 544 400
WIRE 560 416 560 400
WIRE 224 448 224 400
WIRE 16 496 16 480
WIRE 720 496 720 384
WIRE 560 512 560 496
WIRE 720 528 720 496
FLAG 16 496 0
FLAG 224 448 0
FLAG 0 384 V1
FLAG 128 -32 Vpl
FLAG 720 528 0
FLAG 560 512 0
FLAG 544 400 VA
FLAG 640 -32 Vpl
SYMBOL res 0 0 R0
SYMATTR InstName R1
SYMATTR Value {R2}
SYMBOL res 208 0 R0
SYMATTR InstName R2
SYMATTR Value {R3}
SYMBOL res 0 272 R0
SYMATTR InstName R3
SYMATTR Value {R1}
SYMBOL MDB_sym\\source-V 16 384 R0
WINDOW 123 0 0 Left 2
WINDOW 39 0 0 Left 2
SYMATTR InstName V1
SYMATTR Value 0
SYMBOL res 208 304 R0
SYMATTR InstName R4
SYMATTR Value 1
SYMBOL MDB_sym\\source-Vmarker -16 -32 R0
SYMATTR Value V={Vplus}
SYMATTR InstName U1
SYMBOL EIT_Semiconductors\\pnp 80 224 R180
SYMATTR InstName Q1
SYMATTR Value PNPx
SYMBOL EIT_Semiconductors\\pnp 160 224 M180
SYMATTR InstName Q2
SYMATTR Value PNPx
SYMBOL EIT_Semiconductors\\npn 496 144 R0
SYMATTR InstName QA
SYMATTR Value NPNx
SYMBOL EIT_Semiconductors\\npn 784 144 M0
SYMATTR InstName QB
SYMATTR Value NPNx
SYMBOL res 544 288 R0
SYMATTR InstName R5
SYMATTR Value {Ra}
SYMBOL res 704 288 R0
SYMATTR InstName R6
SYMATTR Value {Rb}
SYMBOL MDB_sym\\source-V 560 400 R0
WINDOW 123 0 0 Left 2
WINDOW 39 0 0 Left 2
SYMATTR InstName VA
SYMATTR Value 0
SYMBOL res 704 480 R0
SYMATTR InstName R7
SYMATTR Value {R4}
SYMBOL MDB_sym\\source-I 640 64 R180
WINDOW 0 29 73 Left 2
WINDOW 3 29 17 Left 2
WINDOW 123 0 0 Left 2
WINDOW 39 0 0 Left 2
SYMATTR InstName I2
SYMATTR Value 2m
TEXT -152 -240 Left 2 !.model NPNx NPN (Is = {Ic0/exp(Veb0/26m)} Bf={betaN})\n.model PNPx PNP (Is = {Ic0/exp(Veb0/26m)} Bf={betaP})
TEXT 0 896 Left 2 !.dc VA -2.5 2.5 .05
TEXT 0 624 Left 2 !.param mul=1\n+ Ic0 = 1000uA\n+ betaN = 200\n+ betaP = 200\n+ Veb0 = 0.65V\n+ Vplus = 5V\n+ R1 = 4k7\n+ R2 = 300\n+ R3 = {R2}
TEXT 512 632 Left 2 !.param VAm=1\n+ Ra = 1k\n+ Rb = 1k\n+ R4 = 1.675k
