Version 4
SHEET 1 1156 680
WIRE -208 -80 -336 -80
WIRE -336 -48 -336 -80
WIRE -208 16 -208 -80
WIRE -384 32 -496 32
WIRE -496 48 -496 32
WIRE -336 48 -336 32
WIRE 784 96 672 96
WIRE 944 96 864 96
WIRE 992 96 944 96
WIRE -336 112 -336 48
WIRE -208 112 -208 96
WIRE 16 128 -16 128
WIRE 32 128 16 128
WIRE 128 128 112 128
WIRE 160 128 128 128
WIRE 864 128 864 96
WIRE 784 144 784 96
WIRE -496 160 -496 128
WIRE 672 160 672 96
WIRE 320 176 256 176
WIRE 368 176 320 176
WIRE 592 176 448 176
WIRE 64 192 32 192
WIRE 160 192 64 192
WIRE 256 192 256 176
WIRE 448 192 448 176
WIRE 368 208 368 176
WIRE 864 224 864 208
WIRE -336 256 -432 256
WIRE -224 256 -336 256
WIRE 592 256 592 224
WIRE 672 256 672 240
WIRE 256 288 256 272
WIRE 368 288 368 256
WIRE 448 288 448 272
WIRE -336 352 -336 256
WIRE -432 368 -432 336
WIRE -384 368 -432 368
WIRE 32 368 32 192
WIRE 992 368 992 96
WIRE 992 368 32 368
WIRE -224 400 -224 256
WIRE -224 496 -224 480
WIRE -336 528 -336 448
FLAG 672 256 0
FLAG 864 224 0
FLAG 592 256 0
FLAG 784 192 0
FLAG 64 192 Ush
FLAG 128 128 w
FLAG 256 288 0
FLAG 320 176 err1
FLAG 448 288 0
FLAG 368 288 0
FLAG 944 96 ush
FLAG 16 128 stim
FLAG -336 112 0
FLAG -208 112 0
FLAG -224 496 0
FLAG -336 528 0
FLAG -496 160 0
SYMBOL crtl-V-V 864 112 R0
WINDOW 3 -125 167 Left 0
SYMATTR InstName Gcu1
SYMATTR Value 1
SYMBOL crtl-V-V 672 144 R0
WINDOW 3 -143 194 Left 0
SYMATTR InstName Gpw1
SYMATTR Value 1
SYMBOL Function-V 256 176 M0
SYMATTR InstName SUM1
SYMATTR Value V=V(w) - V(Ush)
SYMBOL res 16 144 R270
WINDOW 0 25 56 VTop 0
WINDOW 3 7 56 VBottom 0
SYMATTR InstName R1
SYMATTR Value 1µ
SYMBOL crtl-V-V 448 176 R0
WINDOW 3 -53 -23 Left 0
SYMATTR InstName Cctrl1
SYMATTR Value 1
SYMBOL EIT_Semiconductors\\nmos -384 -48 R0
SYMATTR InstName M1
SYMATTR Value IRFP240
SYMBOL source-V -208 0 R0
WINDOW 123 0 0 Left 0
WINDOW 39 0 0 Left 0
WINDOW 3 -18 167 Left 0
SYMATTR Value 10
SYMATTR InstName V1
SYMBOL source-V -496 32 R0
WINDOW 123 0 0 Left 0
WINDOW 39 0 0 Left 0
WINDOW 3 -18 167 Left 0
SYMATTR Value 10
SYMATTR InstName V2
SYMBOL EIT_Semiconductors\\pmos -384 448 M180
SYMATTR InstName M2
SYMATTR Value IRFP9240
SYMBOL source-V -224 384 R0
WINDOW 123 0 0 Left 0
WINDOW 39 0 0 Left 0
WINDOW 3 -18 167 Left 0
SYMATTR Value 10
SYMATTR InstName V3
SYMBOL source-V -432 352 R180
WINDOW 123 0 0 Left 0
WINDOW 39 0 0 Left 0
WINDOW 3 -18 167 Left 0
SYMATTR Value 10
SYMATTR InstName V4
TEXT 320 104 Left 0 ;laplace=(0.9315*s+27788.0)/(s)
TEXT 384 144 Left 0 ;laplace=9.3e/(s+9.3e)
TEXT 376 328 Left 0 ;laplace=(10.0)/(4.5e-7*s+1.0)
TEXT 736 304 Left 0 ;laplace=(0.0625)/(0.000106*s+1.0)
