Version 4
SHEET 1 880 680
WIRE -80 -384 -208 -384
WIRE 176 -384 -80 -384
WIRE -80 -352 -80 -384
WIRE 176 -272 176 -384
WIRE -80 -224 -80 -272
WIRE 112 -224 -80 -224
WIRE -80 -176 -80 -224
WIRE 176 -160 176 -176
WIRE -80 -80 -80 -96
WIRE -208 -16 -240 -16
WIRE -80 0 -80 -16
WIRE -80 0 -144 0
WIRE 176 0 176 -80
WIRE 272 0 176 0
WIRE 416 0 272 0
WIRE -368 16 -448 16
WIRE -256 16 -288 16
WIRE -208 16 -256 16
WIRE -80 16 -80 0
WIRE 416 48 416 0
WIRE -448 64 -448 16
WIRE -256 64 -256 16
WIRE 176 80 176 0
WIRE -80 96 -80 80
WIRE -80 112 -80 96
WIRE -448 160 -448 144
WIRE 176 176 176 160
WIRE 416 176 416 128
WIRE -80 224 -80 192
WIRE 112 224 -80 224
WIRE -80 256 -80 224
WIRE -80 368 -80 336
WIRE 176 368 176 272
WIRE -256 416 -256 144
WIRE 272 416 272 0
WIRE 272 416 -256 416
FLAG 176 368 0
FLAG -80 96 r4
FLAG -240 -16 0
FLAG -80 368 0
FLAG 416 176 0
FLAG -448 160 0
SYMBOL EIT_Semiconductors\\npn 112 176 R0
SYMATTR InstName Q1
SYMATTR Value PXT4401
SYMBOL res 160 -176 R0
SYMATTR InstName R1
SYMATTR Value 10
SYMBOL res 160 64 R0
SYMATTR InstName R2
SYMATTR Value 10
SYMBOL source-Vmarker -208 -384 R0
WINDOW 3 -73 -3 Center 2
SYMATTR InstName U1
SYMBOL EIT_Semiconductors\\pnp 112 -176 M180
SYMATTR InstName T2
SYMATTR Value BC327-40
SYMBOL res -96 96 R0
SYMATTR InstName R3
SYMATTR Value 1k
SYMBOL diode -96 -80 R0
WINDOW 3 39 38 Left 2
SYMATTR InstName D1
SYMATTR Value 1N4148
SYMBOL diode -96 16 R0
SYMATTR InstName D2
SYMATTR Value 1N4148
SYMBOL EIT_Semiconductors\\op_3 -176 0 M180
WINDOW 123 -264 -90 Invisible 2
WINDOW 3 -604 -117 Invisible 2
SYMATTR Value2 FT={FT} SR=10
SYMATTR Value Vp={0.95*Vsup} Vm={-0.95*Vsup} Ilim=20m
SYMATTR InstName U2
SYMBOL res -96 -192 R0
SYMATTR InstName R4
SYMATTR Value 1k
SYMBOL source-I -80 -272 R180
WINDOW 0 29 73 Left 2
WINDOW 3 29 17 Left 2
WINDOW 123 0 0 Left 2
WINDOW 39 0 0 Left 2
SYMATTR InstName I1
SYMATTR Value {IK1}
SYMBOL source-I -80 336 R180
WINDOW 0 29 73 Left 2
WINDOW 3 29 17 Left 2
WINDOW 123 0 0 Left 2
WINDOW 39 0 0 Left 2
SYMATTR InstName I2
SYMATTR Value {IK1}
SYMBOL res -384 32 R270
WINDOW 0 25 56 VTop 2
WINDOW 3 7 56 VBottom 2
SYMATTR InstName R5
SYMATTR Value 10k
SYMBOL res -272 48 R0
SYMATTR InstName R6
SYMATTR Value 1k
SYMBOL res 400 32 R0
SYMATTR InstName RL
SYMATTR Value 10k
SYMBOL source-V -448 48 R0
WINDOW 123 0 0 Left 2
WINDOW 39 0 0 Left 2
SYMATTR InstName V1
SYMATTR Value SINE(1 1 50)
TEXT -440 -272 Left 2 !.param Ik = 4mA
