Version 4
SHEET 1 4408 6248
WIRE 832 -240 832 -320
WIRE 1520 -176 1520 -240
WIRE 512 -160 512 -176
WIRE 512 -144 512 -160
WIRE 304 -128 256 -128
WIRE 352 -128 304 -128
WIRE 480 -128 432 -128
WIRE 2048 -128 2048 -176
WIRE 2176 -128 2176 -176
WIRE 576 -112 544 -112
WIRE 624 -112 624 -128
WIRE 624 -112 576 -112
WIRE 480 -96 464 -96
WIRE 832 -64 832 -160
WIRE 1520 -64 1520 -96
WIRE 256 -48 256 -128
WIRE 512 -48 512 -80
WIRE 2048 -32 2048 -48
WIRE 2176 -32 2176 -48
WIRE 2176 -32 2048 -32
WIRE 928 -16 896 -16
WIRE 1456 -16 928 -16
WIRE 2048 -16 2048 -32
WIRE 1664 16 1664 -160
WIRE 464 32 464 -96
WIRE 464 32 448 32
WIRE 496 32 464 32
WIRE 624 32 624 -112
WIRE 624 32 576 32
WIRE 832 48 832 32
WIRE 928 48 928 -16
WIRE 928 48 832 48
WIRE 464 64 464 32
WIRE 1520 64 1520 32
WIRE 1600 64 1520 64
WIRE 256 80 256 32
WIRE 1008 160 1008 144
WIRE 464 176 464 144
WIRE 1664 192 1664 112
WIRE 832 256 832 48
WIRE 1008 256 1008 240
WIRE 608 304 560 304
WIRE 656 304 608 304
WIRE 768 304 736 304
WIRE 1232 304 1072 304
WIRE 1264 304 1232 304
WIRE 1296 304 1264 304
WIRE 1664 304 1664 272
WIRE 1664 304 1344 304
WIRE 1840 304 1664 304
WIRE 2016 304 1840 304
WIRE 1520 336 1520 64
WIRE 1664 336 1664 304
WIRE 1232 352 1232 304
WIRE 2016 352 2016 304
WIRE 832 384 832 352
WIRE 928 384 832 384
WIRE 1008 384 1008 352
WIRE 1008 384 928 384
WIRE 928 416 928 384
WIRE 1520 416 1520 400
WIRE 1232 464 1232 432
WIRE 1664 496 1664 416
WIRE 2016 496 2016 432
WIRE 1376 544 1376 512
WIRE 1520 544 1520 480
WIRE 1600 544 1520 544
WIRE 1520 624 1520 544
WIRE 1376 672 1376 624
WIRE 1456 672 1376 672
WIRE 1856 688 1808 688
WIRE 2016 688 2016 576
WIRE 2016 688 1856 688
WIRE 1376 704 1376 672
WIRE 1520 752 1520 720
WIRE 1664 752 1664 592
WIRE 1376 784 1376 768
WIRE 928 912 928 496
WIRE 1376 912 1376 848
WIRE 1376 912 928 912
WIRE 1440 912 1376 912
WIRE 1520 912 1520 832
WIRE 1520 912 1440 912
WIRE 1808 928 1808 688
FLAG 2048 -16 0
FLAG 2048 -176 Vplus
FLAG 2176 -176 Vmin
FLAG 256 80 0
FLAG 512 -160 Vplus
FLAG 512 -48 Vmin
FLAG 1664 -160 Vplus
FLAG 1664 752 Vmin
FLAG 1840 304 out_A
FLAG 1856 688 shunt
FLAG 304 -128 stim
FLAG 576 -112 opOut
FLAG 464 176 0
FLAG 1376 512 0
FLAG 1440 912 Vmin
FLAG 832 -320 Vplus
FLAG 1808 928 0
FLAG 1520 -240 Vplus
FLAG 1232 464 0
FLAG 1008 144 Vplus
FLAG 608 304 stim
SYMBOL voltage 2048 -144 R0
WINDOW 123 0 0 Left 2
WINDOW 39 0 0 Left 2
SYMATTR InstName V6
SYMATTR Value 30
SYMBOL voltage 2176 -144 R0
WINDOW 123 0 0 Left 2
WINDOW 39 0 0 Left 2
SYMATTR InstName V7
SYMATTR Value -30
SYMBOL voltage 256 -64 R0
WINDOW 123 24 124 Left 2
WINDOW 39 0 0 Left 2
SYMATTR Value2 AC 1
SYMATTR InstName V8
SYMATTR Value SINE(0 0.5 1k)
SYMBOL res 1648 176 R0
SYMATTR InstName R11
SYMATTR Value {Rs}
SYMBOL res 1680 432 R180
WINDOW 0 36 76 Left 2
WINDOW 3 36 40 Left 2
SYMATTR InstName R12
SYMATTR Value {Rs}
SYMBOL res 336 -112 R270
WINDOW 0 32 56 VTop 2
WINDOW 3 0 56 VBottom 2
SYMATTR InstName R13
SYMATTR Value 10k
SYMBOL res 2000 480 R0
SYMATTR InstName R14
SYMATTR Value 1.5
SYMBOL ind 2000 336 R0
SYMATTR InstName L1
SYMATTR Value 170µ
SYMBOL Opamps\\opamp2 512 -176 R0
SYMATTR InstName U4
SYMATTR Value ada4700
SYMATTR SpiceModel ada4700
SYMBOL res 448 48 R0
SYMATTR InstName R1
SYMATTR Value 10k
SYMBOL res 592 16 R90
WINDOW 0 0 56 VBottom 2
WINDOW 3 32 56 VTop 2
SYMATTR InstName R2
SYMATTR Value 100t
SYMBOL npn 1456 624 R0
SYMATTR InstName Q4
SYMATTR Value BC547B
SYMBOL res 1504 736 R0
SYMATTR InstName R7
SYMATTR Value 68
SYMBOL res 1360 528 R0
SYMATTR InstName R8
SYMATTR Value 10k
SYMBOL diode 1360 704 R0
SYMATTR InstName D6
SYMATTR Value 1N4148
SYMBOL diode 1360 784 R0
SYMATTR InstName D7
SYMATTR Value 1N4148
SYMBOL npn 1600 16 R0
SYMATTR InstName Q5
SYMATTR Value 2N3055
SYMBOL pnp 1600 592 M180
SYMATTR InstName Q6
SYMATTR Value BD242
SYMBOL diode 1504 416 R0
SYMATTR InstName D1
SYMATTR Value 1N4148
SYMBOL pnp 1456 32 M180
SYMATTR InstName Q1
SYMATTR Value BC327-40
SYMBOL res 1504 -192 R0
SYMATTR InstName R10
SYMATTR Value 100
SYMBOL diode 1504 336 R0
SYMATTR InstName D9
SYMATTR Value 1N4148
SYMBOL res 1360 288 R90
WINDOW 0 0 56 VBottom 2
WINDOW 3 32 56 VTop 2
SYMATTR InstName R4
SYMATTR Value 1k
SYMBOL res 1248 448 R180
WINDOW 0 36 76 Left 2
WINDOW 3 36 40 Left 2
SYMATTR InstName R9
SYMATTR Value 1k
SYMBOL npn 768 256 R0
SYMATTR InstName Q2
SYMATTR Value BC547B
SYMBOL res 912 400 R0
SYMATTR InstName R15
SYMATTR Value 470
SYMBOL pnp 896 32 R180
SYMATTR InstName Q8
SYMATTR Value BC327-40
SYMBOL res 816 -256 R0
SYMATTR InstName R16
SYMATTR Value 100
SYMBOL npn 1072 256 M0
SYMATTR InstName Q3
SYMATTR Value BC547B
SYMBOL Opamps\\LTC6090 -432 432 R0
SYMATTR InstName U1
SYMBOL res 992 144 R0
SYMATTR InstName R3
SYMATTR Value 100
SYMBOL res 752 288 R90
WINDOW 0 7 56 VBottom 2
WINDOW 3 25 56 VTop 2
SYMATTR InstName R5
SYMATTR Value 10k
TEXT 792 -536 Left 2 !.inc /home/mainster/.wine/drive_c/Program Files (x86)/LTC_orig/LTspiceIV_4.18/lib/sub/ADA4700.sub
TEXT 808 -496 Left 2 !.inc /home/mainster/.wine/drive_c/Program Files (x86)/LTC_orig/LTspiceIV_4.18/lib/sub/LM358.sub
TEXT 584 -384 Left 2 !.param Ik1 = 3m\n.param bias = 15\n.param Rs = 1u\n.param vsup = 20\n.param poti = 10k\n.param set = 0.5\n.param Rll = 5k\n.param FT = 10meg
TEXT 1176 1072 Left 2 ;.step param set 0.1 0.9 0.25
TEXT 1992 56 Left 2 ;.ac oct 100 1 10meg
TEXT 1992 104 Left 2 ;.tran 5m
TEXT 432 1096 Left 2 !.dc V8 -5 5 0.01
