Version 4
SHEET 1 1580 2184
WIRE -528 -592 -528 -640
WIRE -400 -592 -400 -640
WIRE -240 -592 -240 -640
WIRE -112 -592 -112 -640
WIRE -528 -480 -528 -512
WIRE -464 -480 -528 -480
WIRE -400 -480 -400 -512
WIRE -400 -480 -464 -480
WIRE -240 -480 -240 -512
WIRE -176 -480 -240 -480
WIRE -112 -480 -112 -512
WIRE -112 -480 -176 -480
WIRE -464 -464 -464 -480
WIRE -176 -464 -176 -480
WIRE 16 -208 -80 -208
WIRE 656 -208 656 -320
WIRE 656 -208 16 -208
WIRE -80 -176 -80 -208
WIRE 16 -176 16 -208
WIRE 656 -144 656 -208
WIRE 16 -64 16 -96
WIRE 208 -64 208 -96
WIRE 208 -64 16 -64
WIRE 336 -64 208 -64
WIRE 608 -64 416 -64
WIRE 208 -48 208 -64
WIRE -80 -32 -80 -96
WIRE 16 -32 16 -64
WIRE 16 -32 -80 -32
WIRE -384 16 -864 16
WIRE -272 16 -320 16
WIRE 16 16 16 -32
WIRE 208 32 208 16
WIRE 656 64 656 -48
WIRE 656 64 144 64
WIRE 384 112 208 112
WIRE 656 112 656 64
WIRE 656 112 464 112
WIRE 656 128 656 112
WIRE 208 144 208 112
WIRE 208 144 144 144
WIRE -864 208 -864 16
WIRE -848 208 -864 208
WIRE -816 208 -848 208
WIRE -672 208 -736 208
WIRE -608 208 -672 208
WIRE -384 224 -544 224
WIRE -272 224 -272 16
WIRE -272 224 -320 224
WIRE -144 224 -272 224
WIRE -112 224 -144 224
WIRE 208 224 208 208
WIRE 208 224 144 224
WIRE 304 224 208 224
WIRE 656 224 656 208
WIRE 656 224 304 224
WIRE 896 224 656 224
WIRE -608 240 -640 240
WIRE 656 240 656 224
WIRE -640 272 -640 240
WIRE -864 288 -864 208
WIRE 208 304 208 288
WIRE 208 304 144 304
WIRE 896 304 896 224
WIRE -672 336 -672 208
WIRE 208 336 208 304
WIRE 384 336 208 336
WIRE 656 336 656 320
WIRE 656 336 464 336
WIRE 656 384 656 336
WIRE 656 384 144 384
WIRE -864 416 -864 368
WIRE 656 448 656 384
WIRE 896 448 896 384
WIRE 16 464 16 432
WIRE 16 464 -64 464
WIRE 208 464 208 448
WIRE 208 464 16 464
WIRE 336 464 208 464
WIRE 608 464 416 464
WIRE 16 496 16 464
WIRE 208 496 208 464
WIRE -64 512 -64 464
WIRE 208 576 208 560
WIRE -64 640 -64 592
WIRE 16 640 16 576
WIRE 16 640 -64 640
WIRE 656 640 656 544
WIRE 656 640 16 640
WIRE 656 736 656 640
WIRE -672 816 -672 416
WIRE 896 816 896 528
WIRE 896 816 -672 816
WIRE 896 896 896 816
WIRE 896 1040 896 976
FLAG -176 -464 0
FLAG -240 -640 Vplus
FLAG -112 -640 Vmin
FLAG 208 576 0
FLAG 208 32 0
FLAG 656 -320 Vplus
FLAG 656 736 Vmin
FLAG 896 1040 0
FLAG -464 -464 0
FLAG -528 -640 Vopp
FLAG -400 -640 Vopm
FLAG -640 272 0
FLAG -144 224 Vin
FLAG 304 224 Vout+
FLAG -848 208 gen
FLAG -864 416 0
FLAG -1104 128 0
FLAG 208 416 0
FLAG 208 -128 0
FLAG -576 192 Vopp
FLAG -576 256 Vopm
SYMBOL SpecialFunctions\\LT1166 16 224 R0
SYMATTR InstName U1
SYMBOL voltage -240 -608 R0
WINDOW 123 0 0 Left 2
WINDOW 39 0 0 Left 2
SYMATTR InstName V1
SYMATTR Value {Vsup}
SYMBOL voltage -112 -608 R0
WINDOW 123 0 0 Left 2
WINDOW 39 0 0 Left 2
SYMATTR InstName V2
SYMATTR Value {-Vsup}
SYMBOL cap 192 -48 R0
SYMATTR InstName C1
SYMATTR Value 300p
SYMATTR SpiceLine Rser=1 Lser=1n
SYMBOL res 432 -80 R90
WINDOW 0 0 56 VBottom 2
WINDOW 3 32 56 VTop 2
SYMATTR InstName R3
SYMATTR Value 100
SYMBOL nmos 608 -144 R0
SYMATTR InstName M1
SYMATTR Value IRFP240 off
SYMBOL cap 192 144 R0
SYMATTR InstName C2
SYMATTR Value 1µ
SYMBOL cap 192 224 R0
SYMATTR InstName C3
SYMATTR Value 1µ
SYMBOL cap 192 496 R0
SYMATTR InstName C4
SYMATTR Value 300p
SYMATTR SpiceLine Rser=1 Lser=1n
SYMBOL res 432 448 R90
WINDOW 0 0 56 VBottom 2
WINDOW 3 32 56 VTop 2
SYMATTR InstName R4
SYMATTR Value 100
SYMBOL pmos 608 544 M180
SYMATTR InstName M2
SYMATTR Value IRFP9240 off
SYMBOL res 640 112 R0
SYMATTR InstName R7
SYMATTR Value 0.2
SYMBOL res 640 224 R0
SYMATTR InstName R8
SYMATTR Value 0.2
SYMBOL res 880 432 R0
SYMATTR InstName R9
SYMATTR Value 2
SYMBOL res 480 96 R90
WINDOW 0 0 56 VBottom 2
WINDOW 3 32 56 VTop 2
SYMATTR InstName R12
SYMATTR Value 1k
SYMBOL res 368 352 R270
WINDOW 0 32 56 VTop 2
WINDOW 3 0 56 VBottom 2
SYMATTR InstName R13
SYMATTR Value 1k
SYMBOL res -688 320 R0
SYMATTR InstName R14
SYMATTR Value 5k
SYMBOL res 880 880 R0
SYMATTR InstName R15
SYMATTR Value 0.1
SYMBOL res -720 192 R90
WINDOW 0 0 56 VBottom 2
WINDOW 3 32 56 VTop 2
SYMATTR InstName R16
SYMATTR Value 1k
SYMBOL voltage -528 -608 R0
WINDOW 123 0 0 Left 2
WINDOW 39 0 0 Left 2
SYMATTR InstName V4
SYMATTR Value {Vop}
SYMBOL voltage -400 -608 R0
WINDOW 123 0 0 Left 2
WINDOW 39 0 0 Left 2
SYMATTR InstName V5
SYMATTR Value {-Vop}
SYMBOL current 16 -176 R0
WINDOW 123 0 0 Left 2
WINDOW 39 24 24 Left 2
SYMATTR SpiceLine load
SYMATTR InstName I1
SYMATTR Value {Is}
SYMBOL current 16 496 R0
WINDOW 123 0 0 Left 2
WINDOW 39 24 104 Left 2
SYMATTR SpiceLine load
SYMATTR InstName I2
SYMATTR Value {Is}
SYMBOL ind 880 288 R0
SYMATTR InstName L1
SYMATTR Value 180µ
SYMBOL voltage -864 272 R0
WINDOW 123 24 40 Left 2
WINDOW 39 0 0 Left 2
WINDOW 3 -248 215 Left 2
SYMATTR Value2 AC 1
SYMATTR Value PULSE(-1 1 0 10u 10u 10m 20m)
SYMATTR InstName V7
SYMBOL MDB_sym\\jumperRes -352 160 R0
SYMATTR InstName U4
SYMBOL MDB_sym\\isoR 208 -112 R0
SYMATTR InstName R1
SYMBOL MDB_sym\\isoR 208 432 R0
SYMATTR InstName R2
SYMBOL MDB_sym\\NJM4580 -576 160 R0
SYMATTR InstName U2
SYMBOL res -80 496 R0
SYMATTR InstName R5
SYMATTR Value 500k
SYMBOL res -96 -192 R0
SYMATTR InstName R6
SYMATTR Value 500k
TEXT 200 -504 Left 2 !.param VSUP=25\n.param Vop=15\n.param Is=15m
TEXT 208 -568 Left 2 ;.tran 100m startup
TEXT 200 -368 Left 2 ;.step param Is 10m 30m 5m
TEXT -1122 1062 Left 2 !.ac oct 100 10 10meg
