Version 4
SHEET 1 968 1060
WIRE -528 -592 -528 -640
WIRE -400 -592 -400 -640
WIRE -240 -592 -240 -640
WIRE -112 -592 -112 -640
WIRE -528 -480 -528 -512
WIRE -464 -480 -528 -480
WIRE -400 -480 -400 -512
WIRE -400 -480 -464 -480
WIRE -240 -480 -240 -512
WIRE -176 -480 -240 -480
WIRE -112 -480 -112 -512
WIRE -112 -480 -176 -480
WIRE -464 -464 -464 -480
WIRE -176 -464 -176 -480
WIRE 656 -208 656 -320
WIRE 656 -208 16 -208
WIRE 16 -176 16 -208
WIRE 656 -144 656 -208
WIRE 16 -64 16 -96
WIRE 208 -64 16 -64
WIRE 336 -64 208 -64
WIRE 608 -64 416 -64
WIRE 208 -48 208 -64
WIRE 16 16 16 -64
WIRE 208 32 208 16
WIRE 656 64 656 -48
WIRE 656 64 144 64
WIRE 384 112 208 112
WIRE 656 112 656 64
WIRE 656 112 464 112
WIRE 656 128 656 112
WIRE 208 144 208 112
WIRE 208 144 144 144
WIRE -544 192 -544 144
WIRE -784 208 -832 208
WIRE -640 208 -704 208
WIRE -576 208 -640 208
WIRE -352 224 -512 224
WIRE -112 224 -272 224
WIRE 208 224 208 208
WIRE 208 224 144 224
WIRE 656 224 656 208
WIRE 656 224 208 224
WIRE 896 224 656 224
WIRE -576 240 -608 240
WIRE 656 240 656 224
WIRE -832 256 -832 208
WIRE -608 272 -608 240
WIRE -544 288 -544 256
WIRE 208 304 208 288
WIRE 208 304 144 304
WIRE -640 336 -640 208
WIRE 208 336 208 304
WIRE 384 336 208 336
WIRE 656 336 656 320
WIRE 656 336 464 336
WIRE -832 384 -832 336
WIRE 656 384 656 336
WIRE 656 384 144 384
WIRE 656 448 656 384
WIRE 896 448 896 224
WIRE 16 464 16 432
WIRE 208 464 16 464
WIRE 336 464 208 464
WIRE 608 464 416 464
WIRE 16 496 16 464
WIRE 208 496 208 464
WIRE 208 576 208 560
WIRE 16 640 16 576
WIRE 656 640 656 544
WIRE 656 640 16 640
WIRE 656 736 656 640
WIRE -640 864 -640 416
WIRE 896 864 896 528
WIRE 896 864 -640 864
WIRE 896 896 896 864
WIRE 896 1040 896 976
FLAG -176 -464 0
FLAG -240 -640 Vplus
FLAG -112 -640 Vmin
FLAG 208 576 0
FLAG 208 32 0
FLAG 656 -320 Vplus
FLAG 656 736 Vmin
FLAG -832 384 0
FLAG 896 1040 0
FLAG -464 -464 0
FLAG -528 -640 Vopp
FLAG -400 -640 Vopm
FLAG -544 288 Vopm
FLAG -544 144 Vopp
FLAG -608 272 0
SYMBOL SpecialFunctions\\LT1166 16 224 R0
SYMATTR InstName U1
SYMBOL voltage -240 -608 R0
WINDOW 123 0 0 Left 2
WINDOW 39 0 0 Left 2
SYMATTR InstName V1
SYMATTR Value {Vsup}
SYMBOL voltage -112 -608 R0
WINDOW 123 0 0 Left 2
WINDOW 39 0 0 Left 2
SYMATTR InstName V2
SYMATTR Value {-Vsup}
SYMBOL cap 192 -48 R0
SYMATTR InstName C1
SYMATTR Value 300p
SYMBOL res 432 -80 R90
WINDOW 0 0 56 VBottom 2
WINDOW 3 32 56 VTop 2
SYMATTR InstName R3
SYMATTR Value 100
SYMBOL nmos 608 -144 R0
SYMATTR InstName M1
SYMATTR Value IRFP240
SYMBOL cap 192 144 R0
SYMATTR InstName C2
SYMATTR Value 1µ
SYMBOL cap 192 224 R0
SYMATTR InstName C3
SYMATTR Value 1µ
SYMBOL cap 192 496 R0
SYMATTR InstName C4
SYMATTR Value 300p
SYMBOL res 432 448 R90
WINDOW 0 0 56 VBottom 2
WINDOW 3 32 56 VTop 2
SYMATTR InstName R4
SYMATTR Value 100
SYMBOL pmos 608 544 M180
SYMATTR InstName M2
SYMATTR Value IRFP9240
SYMBOL res 640 112 R0
SYMATTR InstName R7
SYMATTR Value 0.33
SYMBOL res 640 224 R0
SYMATTR InstName R8
SYMATTR Value 0.33
SYMBOL res 880 432 R0
SYMATTR InstName R9
SYMATTR Value 2
SYMBOL res -256 208 R90
WINDOW 0 0 56 VBottom 2
WINDOW 3 32 56 VTop 2
SYMATTR InstName R11
SYMATTR Value 4.3k
SYMBOL res 480 96 R90
WINDOW 0 0 56 VBottom 2
WINDOW 3 32 56 VTop 2
SYMATTR InstName R12
SYMATTR Value 1k
SYMBOL res 368 352 R270
WINDOW 0 32 56 VTop 2
WINDOW 3 0 56 VBottom 2
SYMATTR InstName R13
SYMATTR Value 1k
SYMBOL voltage -832 240 R0
WINDOW 123 0 0 Left 2
WINDOW 39 0 0 Left 2
SYMATTR InstName V3
SYMATTR Value 0
SYMBOL Opamps\\UniversalOpamp2 -544 224 R0
SYMATTR InstName U3
SYMBOL res -656 320 R0
SYMATTR InstName R14
SYMATTR Value 10k
SYMBOL res 880 880 R0
SYMATTR InstName R15
SYMATTR Value 0.1
SYMBOL res -688 192 R90
WINDOW 0 0 56 VBottom 2
WINDOW 3 32 56 VTop 2
SYMATTR InstName R16
SYMATTR Value 10k
SYMBOL voltage -528 -608 R0
WINDOW 123 0 0 Left 2
WINDOW 39 0 0 Left 2
SYMATTR InstName V4
SYMATTR Value {Vop}
SYMBOL voltage -400 -608 R0
WINDOW 123 0 0 Left 2
WINDOW 39 0 0 Left 2
SYMATTR InstName V5
SYMATTR Value {-Vop}
SYMBOL current 16 -176 R0
WINDOW 123 0 0 Left 2
WINDOW 39 0 0 Left 2
SYMATTR InstName I1
SYMATTR Value 10m
SYMBOL current 16 496 R0
WINDOW 123 0 0 Left 2
WINDOW 39 0 0 Left 2
SYMATTR InstName I2
SYMATTR Value 10m
TEXT -224 -2160 Left 2 ;VTOP (Pin 1): Pin 1 establishes the top side drive voltage\nfor the output transistors. Operating supply current enters\nPin 1 and a portion biases internal circuitry; Pin 1 current\nshould be greater than 4mA. Pin 1 voltage is internally\nclamped to 12V with respect to VOUT and the pin current\nshould be limited to 75mA maximum.\n \nVIN (Pin 2): Pin 2 is the input to a unity gain buffer which\ndrives VOUT (Pin 3). During a fault condition (short circuit)\nthe input impedance drops to 200W and the input current\nmust be limited to 5mA or VIN to VOUT limited to less than\n±6V.\n \nVOUT (Pin 3): Pin 3 of the LT1166 is the output of a voltage\ncontrol loop that maintains the output voltage at the input\nvoltage.\n \nVBOTTOM (Pin 4): Pin 4 establishes the bottom side drive\nvoltage for the output transistors. Operating supply current\nexits this pin; Pin 4 current should be greater than\n4mA. Pin 4 voltage is internally clamped to – 12V with\nrespect to VOUT and the pin current should be limited to\n75mA maximum.\n \nSENSE– (Pin 5): The Sense – pin voltage is established\nby the current control loop and it controls the output\nquiescent current in the bottom side power device. Limit\nthe maximum differential voltage between Pin 5 and Pin 3\nto ±6V during fault conditions.\n \nILIM– (Pin 6): The negative side current limit, limits the\nvoltage at VBOTTOM to VOUT during a negative fault condition.\nThe maximum reverse voltage on Pin 6 with respect\nto VOUT is 6V.\n \nILIM + (Pin 7): The positive side current limit, limits the\nvoltage at VTOP to VOUT during a positive fault condition.\nThe maximum reverse voltage on Pin 7 with respect to\nVOUT is –6V.\n \nSENSE+ (Pin 8): The Sense + pin voltage is established by\nthe current control loop and it controls the output quiescent\ncurrent in the top side power device. Limit the\nmaximum differential voltage between Pin 8 and Pin 3 to\n±6V during fault conditions.
TEXT 200 -504 Left 2 !.param VSUP=25\n.param Vop=16
TEXT 206 -566 Left 2 !.dc V3 -1 1 0.01
