Version 4
SHEET 1 1292 1092
WIRE 240 -352 240 -400
WIRE 368 -352 368 -400
WIRE 528 -352 528 -400
WIRE 656 -352 656 -400
WIRE 240 -240 240 -272
WIRE 304 -240 240 -240
WIRE 368 -240 368 -272
WIRE 368 -240 304 -240
WIRE 528 -240 528 -272
WIRE 592 -240 528 -240
WIRE 656 -240 656 -272
WIRE 656 -240 592 -240
WIRE 304 -224 304 -240
WIRE 592 -224 592 -240
WIRE 416 -16 16 -16
WIRE 496 -16 416 -16
WIRE 592 -16 496 -16
WIRE 16 0 16 -16
WIRE 128 48 80 48
WIRE 240 48 208 48
WIRE 304 48 240 48
WIRE 416 48 416 -16
WIRE 416 48 384 48
WIRE 240 96 240 48
WIRE 384 128 384 112
WIRE 592 128 592 -16
WIRE 16 144 16 96
WIRE 176 144 16 144
WIRE 240 208 240 192
WIRE 384 208 384 192
WIRE 384 208 240 208
WIRE 448 208 384 208
WIRE 544 208 528 208
WIRE 240 224 240 208
WIRE 464 272 368 272
WIRE 592 272 592 224
WIRE 592 272 464 272
WIRE -384 304 -384 288
WIRE 592 304 592 272
WIRE 464 352 368 352
WIRE -384 416 -384 384
WIRE -320 416 -384 416
WIRE -96 432 -256 432
WIRE 112 432 -16 432
WIRE 464 432 464 416
WIRE 464 432 368 432
WIRE 592 432 592 384
WIRE 592 432 464 432
WIRE 736 432 592 432
WIRE 864 432 736 432
WIRE -560 448 -576 448
WIRE -528 448 -560 448
WIRE -320 448 -448 448
WIRE 464 448 464 432
WIRE 736 448 736 432
WIRE 592 464 592 432
WIRE 864 464 864 432
WIRE -576 496 -576 448
WIRE 464 512 368 512
WIRE -384 544 -384 416
WIRE 736 544 736 528
WIRE 16 592 16 144
WIRE 464 592 368 592
WIRE 592 592 592 544
WIRE 592 592 464 592
WIRE 864 592 864 544
WIRE -576 624 -576 576
WIRE 592 640 592 592
WIRE 736 640 736 608
WIRE 240 656 240 640
WIRE 400 656 240 656
WIRE 448 656 400 656
WIRE 544 656 528 656
WIRE 240 672 240 656
WIRE 400 672 400 656
WIRE 16 720 16 672
WIRE 176 720 16 720
WIRE 16 736 16 720
WIRE 400 752 400 736
WIRE 128 784 80 784
WIRE 240 784 240 768
WIRE 240 784 208 784
WIRE 288 784 240 784
WIRE 384 784 368 784
WIRE 16 848 16 832
WIRE 384 848 384 784
WIRE 384 848 16 848
WIRE 480 848 384 848
WIRE 592 848 592 736
WIRE 592 848 480 848
WIRE -384 944 -384 624
WIRE 864 944 864 672
WIRE 864 944 -384 944
WIRE 864 976 864 944
WIRE 864 1072 864 1056
FLAG 384 112 0
FLAG 400 752 0
FLAG 864 1072 0
FLAG 864 432 OUT
FLAG -560 448 gen
FLAG -576 624 0
FLAG -1200 96 0
FLAG -288 400 Vopp
FLAG -288 464 Vopm
FLAG 592 -224 0
FLAG 528 -400 Vplus
FLAG 656 -400 Vmin
FLAG 304 -224 0
FLAG 240 -400 Vopp
FLAG 368 -400 Vopm
FLAG 1136 608 0
FLAG 1136 512 0
FLAG 1168 480 0
FLAG 1152 384 0
FLAG 1104 464 0
FLAG 1088 528 0
FLAG 496 -16 Vplus
FLAG 480 848 Vmin
FLAG 736 640 0
FLAG -384 288 0
SYMBOL npn 176 672 R0
WINDOW 0 48 30 Left 2
WINDOW 3 47 62 Left 2
SYMATTR InstName Q1
SYMATTR Value 2N2222
SYMBOL npn 80 736 M0
WINDOW 0 48 29 Left 2
WINDOW 3 49 60 Left 2
SYMATTR InstName Q2
SYMATTR Value 2N2222
SYMBOL pnp 176 192 M180
WINDOW 0 50 65 Left 2
WINDOW 3 48 29 Left 2
SYMATTR InstName Q3
SYMATTR Value 2N2907
SYMBOL pnp 80 96 R180
WINDOW 0 10 86 Right 2
WINDOW 3 42 -8 Right 2
SYMATTR InstName Q4
SYMATTR Value 2N2907
SYMBOL res 224 32 R90
WINDOW 0 0 56 VBottom 2
WINDOW 3 32 56 VTop 2
SYMATTR InstName R1
SYMATTR Value 100
SYMBOL res 224 768 R90
WINDOW 0 0 56 VBottom 2
WINDOW 3 32 56 VTop 2
SYMATTR InstName R2
SYMATTR Value 100
SYMBOL res 0 576 R0
SYMATTR InstName R3
SYMATTR Value 5.6K
SYMBOL res 0 416 R90
WINDOW 0 0 56 VBottom 2
WINDOW 3 32 56 VTop 2
SYMATTR InstName R4
SYMATTR Value 4K
SYMBOL res 400 32 R90
WINDOW 0 0 56 VBottom 2
WINDOW 3 32 56 VTop 2
SYMATTR InstName R5
SYMATTR Value 47
SYMBOL res 384 768 R90
WINDOW 0 3 57 VBottom 2
WINDOW 3 32 56 VTop 2
SYMATTR InstName R6
SYMATTR Value 47
SYMBOL res 544 192 R90
WINDOW 0 0 56 VBottom 2
WINDOW 3 32 56 VTop 2
SYMATTR InstName R7
SYMATTR Value 100
SYMBOL cap 368 128 R0
WINDOW 3 24 53 Left 2
SYMATTR Value 30p
SYMATTR InstName C1
SYMBOL res 576 288 R0
SYMATTR InstName R8
SYMATTR Value .1
SYMBOL res 576 448 R0
SYMATTR InstName R9
SYMATTR Value .1
SYMBOL res 544 640 R90
WINDOW 0 0 56 VBottom 2
WINDOW 3 32 56 VTop 2
SYMATTR InstName R10
SYMATTR Value 100
SYMBOL cap 384 736 M180
WINDOW 0 23 50 Left 2
WINDOW 3 25 12 Left 2
SYMATTR InstName C2
SYMATTR Value 30p
SYMBOL cap 448 352 R0
WINDOW 0 25 12 Left 2
WINDOW 3 35 48 Left 2
SYMATTR InstName C3
SYMATTR Value 1µ
SYMBOL cap 448 448 R0
WINDOW 0 29 16 Left 2
WINDOW 3 33 50 Left 2
SYMATTR InstName C4
SYMATTR Value 1µ
SYMBOL res 448 496 R0
SYMATTR InstName R11
SYMATTR Value 1K
SYMBOL res 448 256 R0
SYMATTR InstName R12
SYMATTR Value 1K
SYMBOL res 848 576 R0
SYMATTR InstName Rload1
SYMATTR Value 3.5
SYMBOL SpecialFunctions\\LT1166 240 432 R0
SYMATTR InstName U1
SYMBOL nmos 1104 384 R0
SYMATTR InstName M1
SYMATTR Value IRFP240 off
SYMBOL pmos 1088 608 M180
SYMATTR InstName M2
SYMATTR Value IRFP9240 off
SYMBOL res -400 528 R0
SYMATTR InstName R13
SYMATTR Value 5k
SYMBOL res -432 432 R90
WINDOW 0 0 56 VBottom 2
WINDOW 3 32 56 VTop 2
SYMATTR InstName R14
SYMATTR Value 1k
SYMBOL voltage -576 480 R0
WINDOW 123 24 40 Left 2
WINDOW 39 0 0 Left 2
WINDOW 3 -248 215 Left 2
SYMATTR Value2 AC 1
SYMATTR Value PULSE(-1 1 0 10u 10u 10m 20m)
SYMATTR InstName V4
SYMBOL MDB_sym\\NJM4580 -288 368 R0
SYMATTR InstName U2
SYMBOL voltage 528 -368 R0
WINDOW 123 0 0 Left 2
WINDOW 39 0 0 Left 2
SYMATTR InstName V5
SYMATTR Value {Vsup}
SYMBOL voltage 656 -368 R0
WINDOW 123 0 0 Left 2
WINDOW 39 0 0 Left 2
SYMATTR InstName V6
SYMATTR Value {-Vsup}
SYMBOL voltage 240 -368 R0
WINDOW 123 0 0 Left 2
WINDOW 39 0 0 Left 2
SYMATTR InstName V7
SYMATTR Value {Vop}
SYMBOL voltage 368 -368 R0
WINDOW 123 0 0 Left 2
WINDOW 39 0 0 Left 2
SYMATTR InstName V8
SYMATTR Value {-Vop}
SYMBOL nmos 544 128 R0
SYMATTR InstName M3
SYMATTR Value IRFP240 off
SYMBOL pmos 544 736 M180
SYMATTR InstName M4
SYMATTR Value IRFP9240 off
SYMBOL ind 848 448 R0
SYMATTR InstName L1
SYMATTR Value 170µ
SYMBOL res 848 960 R0
SYMATTR InstName R15
SYMATTR Value .1
SYMBOL res 720 432 R0
SYMATTR InstName R16
SYMATTR Value 1
SYMBOL cap 720 544 R0
SYMATTR InstName C5
SYMATTR Value 220n
SYMBOL res -400 288 R0
SYMATTR InstName R17
SYMATTR Value 5k
TEXT 656 784 Left 2 ;.tran 10m startup
TEXT 968 -264 Left 2 !.param VSUP=25\n.param Vop=15\n.param Is=15m
TEXT 976 -328 Left 2 ;.tran 100m startup
TEXT 968 -128 Left 2 ;.step param Is 10m 30m 5m
TEXT -1218 858 Left 2 !.ac oct 100 10 10meg
