Version 4
SHEET 1 996 1860
WIRE 144 128 144 96
WIRE 256 128 256 96
WIRE 144 240 144 208
WIRE 208 240 144 240
WIRE 256 240 256 208
WIRE 256 240 208 240
WIRE 656 240 656 176
WIRE 208 256 208 240
WIRE 656 352 656 320
WIRE 288 400 224 400
WIRE 352 400 288 400
WIRE 352 448 352 400
WIRE 224 528 224 400
WIRE -80 544 -80 416
WIRE 352 576 352 528
WIRE 352 576 288 576
WIRE -208 624 -208 496
WIRE 352 640 352 576
WIRE -80 672 -80 624
WIRE -80 672 -144 672
WIRE 224 672 224 624
WIRE 320 672 224 672
WIRE 224 704 224 672
WIRE -80 736 -80 672
WIRE -208 768 -208 720
WIRE -112 768 -208 768
WIRE -208 800 -208 768
WIRE 224 832 224 784
WIRE 352 832 352 704
WIRE 352 832 224 832
WIRE 224 880 224 832
WIRE -208 928 -208 880
WIRE -144 928 -208 928
WIRE -80 928 -80 800
WIRE -80 928 -144 928
WIRE 224 992 224 960
FLAG 208 256 0
FLAG 144 96 Vm
FLAG 256 96 Vp
FLAG -80 416 0
FLAG -208 416 0
FLAG 224 992 0
FLAG 288 400 Vp
FLAG -144 928 Vm
FLAG 656 352 0
SYMBOL voltage 144 112 R0
WINDOW 123 0 0 Left 2
WINDOW 39 0 0 Left 2
SYMATTR InstName V1
SYMATTR Value {-Vsup}
SYMBOL voltage 256 112 R0
WINDOW 123 0 0 Left 2
WINDOW 39 0 0 Left 2
SYMATTR InstName V2
SYMATTR Value {Vsup}
SYMBOL res 208 688 R0
SYMATTR InstName R1
SYMATTR Value 1.244k
SYMBOL res 336 432 R0
SYMATTR InstName R2
SYMATTR Value 4.8kk
SYMBOL res 208 864 R0
SYMATTR InstName Isource1
SYMATTR Value {Rl}
SYMBOL res -224 784 R0
SYMATTR InstName R3
SYMATTR Value 1.244k
SYMBOL res -96 528 R0
SYMATTR InstName R4
SYMATTR Value 4.7k
SYMBOL res -224 400 R0
SYMATTR InstName Isink1
SYMATTR Value {Rl}
SYMBOL voltage 656 224 R0
WINDOW 123 0 0 Left 2
WINDOW 39 0 0 Left 2
SYMATTR InstName V3
SYMATTR Value 0
SYMBOL SBORKA\\REF\\tlv431_on -96 736 R0
SYMATTR InstName U1
SYMBOL SBORKA\\REF\\tlv431_on 336 640 R0
SYMATTR InstName U2
SYMBOL pbss4350z -144 624 M0
SYMATTR InstName U3
SYMBOL pbss4350z 288 528 M0
SYMATTR InstName U4
TEXT 456 120 Left 2 !.param Vsup=30\n.param Ik=3.9m\n.param R1=10k\n.param R2=20k\n.param rail=0\n.param Rl=220
TEXT -128 136 Left 2 !.op
TEXT -160 168 Left 2 !.step temp 20 80 1
TEXT 8 -32 Left 2 ;.step param Rl list 100 200 500
TEXT 464 448 Left 2 !.step param ri list 220 1k
