Version 4
SHEET 1 2136 968
WIRE -688 -144 -736 -144
WIRE -656 -144 -688 -144
WIRE -688 -80 -736 -80
WIRE -656 -80 -688 -80
WIRE 32 -48 32 -64
WIRE 192 -48 192 -64
WIRE 304 -48 304 -64
WIRE -816 16 -944 16
WIRE -432 16 -576 16
WIRE -96 32 -176 32
WIRE 32 32 32 16
WIRE 32 32 -16 32
WIRE 192 32 192 16
WIRE 304 32 304 16
WIRE 304 32 192 32
WIRE 528 32 304 32
WIRE -176 48 -176 32
WIRE 32 64 32 32
WIRE 192 64 192 32
WIRE 304 64 304 32
WIRE -576 80 -576 16
WIRE -544 80 -576 80
WIRE -944 96 -944 16
WIRE -912 96 -944 96
WIRE -480 96 -496 96
WIRE -432 96 -432 16
WIRE -432 96 -480 96
WIRE -352 96 -432 96
WIRE -816 112 -816 16
WIRE -816 112 -848 112
WIRE -768 112 -816 112
WIRE -672 112 -688 112
WIRE -656 112 -672 112
WIRE -560 112 -576 112
WIRE -544 112 -560 112
WIRE -1152 128 -1168 128
WIRE -944 128 -976 128
WIRE -912 128 -944 128
WIRE 400 128 384 128
WIRE 416 128 400 128
WIRE 496 128 480 128
WIRE -560 144 -560 112
WIRE -176 144 -176 128
WIRE -944 160 -944 128
WIRE -880 160 -880 144
WIRE -1168 192 -1168 128
WIRE 400 224 400 128
WIRE 400 224 384 224
WIRE 416 224 400 224
WIRE 496 224 480 224
WIRE -944 240 -944 224
WIRE -672 256 -672 112
WIRE -544 256 -672 256
WIRE -432 256 -432 96
WIRE -432 256 -480 256
WIRE -1168 288 -1168 272
WIRE 192 304 192 288
WIRE -192 320 -208 320
WIRE -176 320 -192 320
WIRE -64 320 -96 320
WIRE 32 320 32 288
WIRE 32 320 -64 320
WIRE 304 320 304 288
WIRE 528 320 528 32
WIRE 528 320 304 320
WIRE -64 336 -64 320
WIRE 32 336 32 320
WIRE 528 336 528 320
WIRE -672 432 -800 432
WIRE -64 432 -64 416
WIRE 32 432 32 400
WIRE 32 432 -64 432
WIRE 128 432 128 288
WIRE 128 432 32 432
WIRE 144 432 128 432
WIRE 240 432 224 432
WIRE 288 432 240 432
WIRE 528 432 528 416
WIRE 240 448 240 432
WIRE -800 512 -800 432
WIRE -768 512 -800 512
WIRE -672 528 -672 432
WIRE -672 528 -704 528
WIRE 240 528 240 512
WIRE -944 544 -960 544
WIRE -928 544 -944 544
WIRE -816 544 -848 544
WIRE -768 544 -816 544
WIRE -816 576 -816 544
WIRE -816 656 -816 640
FLAG 192 304 0
FLAG 528 432 0
FLAG 496 128 0
FLAG 496 224 0
FLAG 240 528 0
FLAG 32 -64 0
FLAG -176 144 0
FLAG 288 432 OUT
FLAG -1168 288 0
FLAG 192 -64 0
FLAG 304 -64 0
FLAG -688 -144 V+
FLAG -880 80 +5V
FLAG -512 64 +5V
FLAG -944 240 0
FLAG -560 208 0
FLAG -688 -80 V-
FLAG -880 160 -5V
FLAG -512 128 -5V
FLAG -1152 128 HVIN
FLAG -816 656 0
FLAG -944 544 HVIN
FLAG -672 528 fil
FLAG -736 496 V+
FLAG -736 560 V-
FLAG -192 320 hvin
FLAG -1056 128 0
SYMBOL Opamps\\LTC6360 192 176 R0
SYMATTR InstName U1
SYMBOL voltage 528 320 R0
WINDOW 123 24 138 Left 2
WINDOW 39 24 117 Left 2
SYMATTR InstName V1
SYMATTR Value 5
SYMBOL cap 480 208 R90
WINDOW 0 0 32 VBottom 2
WINDOW 3 32 32 VTop 2
SYMATTR InstName C1
SYMATTR Value 10µ
SYMBOL cap 416 144 R270
WINDOW 0 32 32 VTop 2
WINDOW 3 0 32 VBottom 2
SYMATTR InstName C2
SYMATTR Value .1µ
SYMBOL res -80 320 R0
SYMATTR InstName R11
SYMATTR Value {R2}
SYMBOL res 128 448 R270
WINDOW 0 32 56 VTop 2
WINDOW 3 0 56 VBottom 2
SYMATTR InstName R2
SYMATTR Value 10
SYMBOL res -80 304 R90
WINDOW 0 0 56 VBottom 2
WINDOW 3 32 56 VTop 2
SYMATTR InstName R13
SYMATTR Value {R1}
SYMBOL cap 224 448 R0
SYMATTR InstName C3
SYMATTR Value 330p
SYMBOL res 0 16 R90
WINDOW 0 0 56 VBottom 2
WINDOW 3 32 56 VTop 2
SYMATTR InstName R4
SYMATTR Value {Rr}
SYMBOL cap 16 -48 R0
SYMATTR InstName C4
SYMATTR Value 0.1µ
SYMBOL voltage -176 32 R0
WINDOW 123 24 138 Left 2
WINDOW 39 24 117 Left 2
SYMATTR InstName V2
SYMATTR Value {Vr*0}
SYMBOL voltage -1168 176 R0
WINDOW 123 24 124 Left 2
WINDOW 39 24 117 Left 2
SYMATTR Value2 AC 1
SYMATTR InstName V3
SYMATTR Value SINE(5 4 10k)
SYMBOL cap 288 -48 R0
SYMATTR InstName C5
SYMATTR Value 0.1µ
SYMBOL cap 176 -48 R0
SYMATTR InstName C6
SYMATTR Value 1µ
SYMBOL cap 16 336 R0
SYMATTR InstName C7
SYMATTR Value 10p
SYMBOL EXTRA\\AudioOpamp\\NS\\LM6171A_NS -880 112 R0
WINDOW 3 -17 101 Left 2
SYMATTR InstName U2
SYMBOL EXTRA\\AudioOpamp\\NS\\LM6171A_NS -512 96 R0
SYMATTR InstName U3
SYMBOL res -960 112 R90
WINDOW 0 0 56 VBottom 2
WINDOW 3 32 56 VTop 2
SYMATTR InstName R1
SYMATTR Value 2.15k
SYMBOL cap -960 160 R0
SYMATTR InstName C8
SYMATTR Value 9.1n
SYMBOL source-Vmarker -736 -144 R0
SYMATTR Value V=15V
SYMATTR InstName U4
SYMBOL res -560 96 R90
WINDOW 0 0 56 VBottom 2
WINDOW 3 32 56 VTop 2
SYMATTR InstName R3
SYMATTR Value 1.74k
SYMBOL res -672 96 R90
WINDOW 0 0 56 VBottom 2
WINDOW 3 32 56 VTop 2
SYMATTR InstName R5
SYMATTR Value 1.13k
SYMBOL cap -576 144 R0
SYMATTR InstName C9
SYMATTR Value 9.1n
SYMBOL cap -480 240 R90
WINDOW 0 0 32 VBottom 2
WINDOW 3 32 32 VTop 2
SYMATTR InstName C10
SYMATTR Value 18n
SYMBOL source-Vmarker -736 -80 R0
SYMATTR Value V=-15V
SYMATTR InstName U5
SYMBOL cap -832 576 R0
SYMATTR InstName C11
SYMATTR Value {C1}
SYMBOL res -832 528 R90
WINDOW 0 0 56 VBottom 2
WINDOW 3 32 56 VTop 2
SYMATTR InstName R6
SYMATTR Value {Rfil}
SYMBOL Opamps\\LT1468 -736 464 R0
SYMATTR InstName U6
TEXT 408 512 Left 2 !.tran {4/10k} startup uic
TEXT 176 -96 Bottom 2 ;LTC6360 - Very Low Noise Single-Ended SAR ADC Driver with True Zero Output\n±10V Input Signal to a 5V Single-Ended ADC Driver\nInput: ±10Vp-p     Output: 0 to 4 Full Scale
TEXT -504 536 Left 2 ;Note:\n  If the simulation model is not found please update with the "Sync Release" command from the "Tools" menu.\n  It remains the customer's responsibility to verify proper and reliable operation in the actual application.\n  Component substitution and printed circuit board layout may significantly affect circuit performance or reliability.\n  Contact your local sales representative for assistance. This circuit is distributed to customers only for use with LTC parts.\n  Copyright © 2013 Linear Technology Inc. All rights reserved.
TEXT 584 48 Left 2 !.param R2 = 1\n.param R1 = 2.5k\n.param Rr = {R1*R2/(R1+R2)}\n.param Voff = 5V\n.param Vr = {Voff/(1+R2/R1)}
TEXT -1136 344 Left 2 ;SINE(0 10 1000 0.1m)
TEXT -1072 704 Left 2 !.param fg=100k\n.param C1=4.7n\n.param Rfil={1/(2*pi*fg*C1)}
