Version 4
SHEET 1 880 680
WIRE -512 -1504 -512 -1520
WIRE -416 -1504 -416 -1520
WIRE -512 -1408 -512 -1424
WIRE -416 -1408 -416 -1424
WIRE -544 -1120 -640 -1120
WIRE -528 -1120 -544 -1120
WIRE -368 -1120 -416 -1120
WIRE -288 -1120 -368 -1120
WIRE -528 -1104 -528 -1120
WIRE -416 -1104 -416 -1120
WIRE -640 -1088 -640 -1120
WIRE -1200 -1072 -1216 -1072
WIRE -1072 -1072 -1120 -1072
WIRE -1024 -1072 -1072 -1072
WIRE -896 -1072 -944 -1072
WIRE -848 -1072 -896 -1072
WIRE -1136 -992 -1136 -1008
WIRE -1072 -992 -1072 -1072
WIRE -1072 -992 -1104 -992
WIRE -1024 -992 -1072 -992
WIRE -880 -992 -944 -992
WIRE -848 -992 -880 -992
WIRE -640 -992 -640 -1008
WIRE -1296 -976 -1360 -976
WIRE -1216 -976 -1216 -1072
WIRE -1216 -976 -1296 -976
WIRE -1168 -976 -1216 -976
WIRE -1072 -960 -1104 -960
WIRE -1136 -944 -1136 -960
WIRE -1072 -928 -1072 -960
WIRE -1232 -816 -1248 -816
WIRE -1072 -816 -1152 -816
WIRE -1040 -816 -1072 -816
WIRE -944 -816 -960 -816
WIRE -512 -800 -656 -800
WIRE -480 -800 -512 -800
WIRE -480 -768 -480 -800
WIRE -1168 -752 -1168 -768
WIRE -1072 -752 -1072 -816
WIRE -1072 -752 -1136 -752
WIRE -1312 -736 -1360 -736
WIRE -1248 -736 -1248 -816
WIRE -1248 -736 -1312 -736
WIRE -1200 -736 -1248 -736
WIRE -1072 -720 -1136 -720
WIRE -1040 -720 -1072 -720
WIRE -912 -720 -960 -720
WIRE -864 -720 -912 -720
WIRE -1168 -704 -1168 -720
WIRE -480 -672 -480 -688
WIRE -1072 -640 -1072 -720
WIRE -1040 -640 -1072 -640
WIRE -896 -640 -960 -640
WIRE -864 -640 -896 -640
FLAG -416 -1408 0
FLAG -416 -1520 Vp
FLAG -512 -1408 0
FLAG -512 -1520 Vm
FLAG -528 -1024 0
FLAG -416 -1024 0
FLAG -544 -1120 Vref
FLAG -368 -1120 Vbias
FLAG -640 -992 0
FLAG -480 -672 0
FLAG -512 -800 Chan_X
FLAG -1136 -1008 Vp
FLAG -1136 -944 Vm
FLAG -1072 -928 0
FLAG -880 -992 Chan_x
FLAG -896 -1072 Vbias
FLAG -1296 -976 posX2
FLAG -896 -640 Chan_x
FLAG -912 -720 Vbias
FLAG -944 -816 0
FLAG -1168 -768 Vp
FLAG -1168 -704 Vm
FLAG -1312 -736 posX3
SYMBOL source-V -512 -1520 R0
WINDOW 123 0 0 Left 0
WINDOW 39 0 0 Left 0
SYMATTR InstName V1
SYMATTR Value -10
SYMBOL source-V -416 -1520 R0
WINDOW 123 0 0 Left 0
WINDOW 39 0 0 Left 0
SYMATTR InstName V2
SYMATTR Value 10
SYMBOL source-V -528 -1120 R0
WINDOW 123 0 0 Left 0
WINDOW 39 0 0 Left 0
SYMATTR InstName V4
SYMATTR Value 2.5V
SYMBOL source-V -416 -1120 R0
WINDOW 123 0 0 Left 0
WINDOW 39 0 0 Left 0
SYMATTR InstName V5
SYMATTR Value 1.25V
SYMBOL res -624 -1104 M0
SYMATTR InstName ADC_DAC1
SYMATTR Value 100k
SYMBOL source-V -480 -784 R0
WINDOW 123 0 0 Left 0
WINDOW 39 0 0 Left 0
SYMATTR InstName V6
SYMATTR Value SINE(0 10 1k 2m)
SYMBOL Opamps\\opamp2 -1136 -1040 M0
WINDOW 3 35 102 Left 0
SYMATTR Value OPA404
SYMATTR InstName U3
SYMBOL res -928 -1008 R90
WINDOW 0 7 56 VBottom 0
WINDOW 3 25 56 VTop 0
SYMATTR InstName R8
SYMATTR Value {22k*20/2.5}
SYMBOL res -928 -1088 R90
WINDOW 0 7 56 VBottom 0
WINDOW 3 25 56 VTop 0
SYMATTR InstName R9
SYMATTR Value 22k
SYMBOL res -1104 -1056 M270
WINDOW 0 25 56 VTop 0
WINDOW 3 7 56 VBottom 0
SYMATTR InstName R10
SYMATTR Value 22k
SYMBOL res -944 -656 R90
WINDOW 0 7 56 VBottom 0
WINDOW 3 25 56 VTop 0
SYMATTR InstName R11
SYMATTR Value {R11}
SYMBOL res -944 -736 R90
WINDOW 0 7 56 VBottom 0
WINDOW 3 25 56 VTop 0
SYMATTR InstName R12
SYMATTR Value 22k
SYMBOL res -1136 -800 M270
WINDOW 0 25 56 VTop 0
WINDOW 3 7 56 VBottom 0
SYMATTR InstName R13
SYMATTR Value 22k
SYMBOL Opamps\\opamp2 -1168 -800 M0
WINDOW 3 35 102 Left 0
SYMATTR Value OPA404
SYMATTR InstName U4
TEXT -536 -1360 Left 0 !.tran 0 5m 0
TEXT -464 -1184 Right 0 ;REF20xx
TEXT -576 -1272 Left 0 !.param REF = 2.5V
TEXT -584 -912 Left 0 ;Pos. Demodulator\n+-10V @ +-20°
TEXT -1528 -592 Left 0 !.param fact = 1\n;.step param fact list 0.85 1 1.05
TEXT -1720 -1336 Left 0 !.include /home/mainster/.wine/drive_c/Program Files (x86)/LTC_orig/LTspiceIV_4.18/lib/sub/OPA404.LIB
TEXT -1720 -1312 Left 0 !.include /home/mainster/.wine/drive_c/Program Files (x86)/LTC_orig/LTspiceIV_4.18/lib/sub/LM358.lib
RECTANGLE Normal -320 -992 -576 -1160 2
RECTANGLE Normal -296 -600 -584 -856 2
