Version 4
SHEET 1 880 680
WIRE 288 -176 272 -176
WIRE 384 -176 368 -176
WIRE 464 -176 384 -176
WIRE 560 -176 544 -176
WIRE 384 -32 384 -176
WIRE 448 -32 384 -32
WIRE 560 -16 560 -176
WIRE 560 -16 512 -16
WIRE 704 -16 560 -16
WIRE 224 0 176 0
WIRE 272 0 224 0
WIRE 384 0 352 0
WIRE 448 0 384 0
WIRE 208 80 176 80
WIRE 272 80 208 80
WIRE 384 80 384 0
WIRE 384 80 352 80
WIRE -16 288 -48 288
WIRE 400 304 368 304
WIRE -16 320 -16 288
WIRE 400 336 400 304
WIRE -16 416 -16 400
WIRE 400 432 400 416
FLAG 208 80 Chan_x
FLAG 224 0 Vbias
FLAG 272 -176 0
FLAG 400 432 0
FLAG 368 304 Chan_X
FLAG -16 416 0
FLAG -48 288 Vbias
SYMBOL res 256 64 M90
WINDOW 0 7 56 VBottom 0
WINDOW 3 25 56 VTop 0
SYMATTR InstName R1
SYMATTR Value {22k*20/2.5}
SYMBOL res 256 -16 M90
WINDOW 0 7 56 VBottom 0
WINDOW 3 25 56 VTop 0
SYMATTR InstName R2
SYMATTR Value 22k
SYMBOL res 448 -160 R270
WINDOW 0 25 56 VTop 0
WINDOW 3 7 56 VBottom 0
SYMATTR InstName R3
SYMATTR Value 22k
SYMBOL res 272 -160 R270
WINDOW 0 25 56 VTop 0
WINDOW 3 7 56 VBottom 0
SYMATTR InstName R4
SYMATTR Value {22k*100k}
SYMBOL EIT_Semiconductors\\op_3 480 -16 R0
SYMATTR InstName U1
SYMBOL source-V 400 320 R0
WINDOW 123 0 0 Left 0
WINDOW 39 0 0 Left 0
SYMATTR InstName V1
SYMATTR Value SINE(0 10 1k 2m)
SYMBOL source-V -16 304 R0
WINDOW 123 0 0 Left 0
WINDOW 39 0 0 Left 0
SYMATTR InstName V2
SYMATTR Value 1.25
TEXT 296 192 Left 0 ;Pos. Demodulator\n+-10V @ +-20°
TEXT -130 510 Left 0 !.tran 10m
RECTANGLE Normal 584 504 296 248 2
