Version 4
SHEET 1 3700 2520
WIRE 1712 640 1712 576
WIRE 1824 640 1824 576
WIRE 1712 752 1712 720
WIRE 1776 752 1712 752
WIRE 1824 752 1824 720
WIRE 1824 752 1776 752
WIRE 1776 768 1776 752
WIRE 1568 928 1504 928
WIRE 1712 928 1648 928
WIRE 1776 928 1712 928
WIRE 3696 928 1856 928
WIRE 2080 1008 1824 1008
WIRE 2192 1008 2080 1008
WIRE 2240 1008 2192 1008
WIRE 2672 1008 2240 1008
WIRE 3312 1008 2672 1008
WIRE 2240 1040 2240 1008
WIRE 2672 1104 2672 1008
WIRE 3312 1136 3312 1008
WIRE 2240 1184 2240 1120
WIRE 2384 1184 2240 1184
WIRE 2080 1216 2080 1008
WIRE 2240 1216 2240 1184
WIRE 2672 1216 2672 1184
WIRE 2864 1216 2672 1216
WIRE 2992 1216 2864 1216
WIRE 3264 1216 3072 1216
WIRE 2864 1232 2864 1216
WIRE 1824 1280 1824 1008
WIRE 2672 1296 2672 1216
WIRE 2864 1312 2864 1296
WIRE 1952 1328 1888 1328
WIRE 2080 1328 2080 1296
WIRE 2080 1328 1952 1328
WIRE 2240 1328 2240 1296
WIRE 3312 1344 3312 1232
WIRE 3312 1344 2800 1344
WIRE 3040 1392 2864 1392
WIRE 3312 1392 3312 1344
WIRE 3312 1392 3120 1392
WIRE 2080 1408 2080 1392
WIRE 3312 1408 3312 1392
WIRE 2864 1424 2864 1392
WIRE 2864 1424 2800 1424
WIRE 1824 1440 1824 1376
WIRE 1824 1472 1824 1440
WIRE 1712 1488 1712 928
WIRE 1792 1488 1712 1488
WIRE 1904 1504 1856 1504
WIRE 2080 1504 2080 1488
WIRE 2080 1504 1904 1504
WIRE 2240 1504 2240 1392
WIRE 2240 1504 2080 1504
WIRE 2352 1504 2240 1504
WIRE 2512 1504 2432 1504
WIRE 2544 1504 2512 1504
WIRE 2864 1504 2864 1488
WIRE 2864 1504 2800 1504
WIRE 2960 1504 2864 1504
WIRE 3312 1504 3312 1488
WIRE 3312 1504 2960 1504
WIRE 3552 1504 3312 1504
WIRE 1552 1520 1536 1520
WIRE 1584 1520 1552 1520
WIRE 1792 1520 1664 1520
WIRE 3312 1520 3312 1504
WIRE 2080 1536 2080 1504
WIRE 1536 1568 1536 1520
WIRE 1952 1568 1952 1328
WIRE 2240 1568 2240 1504
WIRE 1824 1584 1824 1536
WIRE 2864 1584 2864 1568
WIRE 2864 1584 2800 1584
WIRE 3552 1584 3552 1504
WIRE 2864 1616 2864 1584
WIRE 3040 1616 2864 1616
WIRE 3312 1616 3312 1600
WIRE 3312 1616 3120 1616
WIRE 2080 1648 2080 1616
WIRE 3312 1664 3312 1616
WIRE 3312 1664 2800 1664
WIRE 1536 1696 1536 1648
WIRE 1824 1696 1824 1584
WIRE 2240 1696 2240 1632
WIRE 3312 1728 3312 1664
WIRE 3552 1728 3552 1664
WIRE 1952 1744 1952 1632
WIRE 1952 1744 1888 1744
WIRE 2080 1744 2080 1712
WIRE 2080 1744 1952 1744
WIRE 2672 1744 2672 1712
WIRE 2864 1744 2672 1744
WIRE 2992 1744 2864 1744
WIRE 3264 1744 3072 1744
WIRE 2672 1776 2672 1744
WIRE 2864 1776 2864 1744
WIRE 2240 1840 2240 1776
WIRE 2400 1840 2240 1840
WIRE 2864 1856 2864 1840
WIRE 3552 1872 3552 1808
WIRE 3552 1872 3536 1872
WIRE 3696 1872 3696 928
WIRE 3696 1872 3552 1872
WIRE 2240 1904 2240 1840
WIRE 3552 1936 3552 1872
WIRE 1824 2016 1824 1792
WIRE 1936 2016 1824 2016
WIRE 2080 2016 2080 1824
WIRE 2080 2016 1936 2016
WIRE 2240 2016 2240 1984
WIRE 2240 2016 2080 2016
WIRE 2672 2016 2672 1856
WIRE 2672 2016 2240 2016
WIRE 3168 2016 2672 2016
WIRE 3312 2016 3312 1824
WIRE 3312 2016 3168 2016
WIRE 3552 2080 3552 2016
FLAG 2192 1008 Vp
FLAG 1936 2016 Vm
FLAG 1552 1520 in
FLAG 1504 928 0
FLAG 1776 768 0
FLAG 1712 576 Vm
FLAG 1824 576 Vp
FLAG 1536 1696 0
FLAG 1904 1504 outOp
FLAG 1824 1440 Op+
FLAG 1824 1584 op-
FLAG 2864 1856 0
FLAG 2864 1312 0
FLAG 3312 1008 Vp
FLAG 3168 2016 Vm
FLAG 3552 2080 0
FLAG 2512 1504 Vin
FLAG 2960 1504 Vout+
SYMBOL current 2240 1040 R0
WINDOW 123 0 0 Left 2
WINDOW 39 0 0 Left 2
SYMATTR InstName I1
SYMATTR Value {Ik}
SYMBOL current 2240 1904 R0
WINDOW 123 0 0 Left 2
WINDOW 39 0 0 Left 2
SYMATTR InstName I2
SYMATTR Value {Ik}
SYMBOL res 2224 1200 R0
SYMATTR InstName R1
SYMATTR Value 1k
SYMBOL res 2224 1680 R0
SYMATTR InstName R6
SYMATTR Value 1k
SYMBOL diode 2224 1568 R0
SYMATTR InstName D1
SYMATTR Value 1N4148
SYMBOL diode 2224 1328 R0
SYMATTR InstName D2
SYMATTR Value 1N4148
SYMBOL res 1872 912 R90
WINDOW 0 0 56 VBottom 2
WINDOW 3 32 56 VTop 2
SYMATTR InstName R7
SYMATTR Value 5k
SYMBOL Opamps\\UniversalOpamp2 1824 1504 R0
SYMATTR InstName U1
SYMATTR SpiceLine ilimit=25m rail={rail} Vos=0 phimargin=45
SYMBOL res 1680 1504 R90
WINDOW 0 0 56 VBottom 2
WINDOW 3 32 56 VTop 2
SYMATTR InstName R8
SYMATTR Value 1k
SYMBOL npn 1888 1280 M0
SYMATTR InstName Q3
SYMATTR Value Q2N2222A
SYMBOL pnp 1888 1792 R180
SYMATTR InstName Q4
SYMATTR Value Q2N6727
SYMBOL res 2064 1200 R0
SYMATTR InstName R9
SYMATTR Value {R2}
SYMBOL res 2064 1728 R0
SYMATTR InstName R10
SYMATTR Value {R2}
SYMBOL res 2064 1520 R0
SYMATTR InstName R11
SYMATTR Value {R1}
SYMBOL res 2064 1392 R0
SYMATTR InstName R12
SYMATTR Value {R1}
SYMBOL diode 2064 1648 R0
SYMATTR InstName D3
SYMATTR Value 1N4148
SYMBOL diode 2064 1328 R0
SYMATTR InstName D4
SYMATTR Value 1N4148
SYMBOL cap 1936 1568 R0
SYMATTR InstName C1
SYMATTR Value 100n
SYMBOL res 1664 912 R90
WINDOW 0 0 56 VBottom 2
WINDOW 3 32 56 VTop 2
SYMATTR InstName R13
SYMATTR Value 10k
SYMBOL voltage 1712 624 R0
WINDOW 123 0 0 Left 2
WINDOW 39 0 0 Left 2
SYMATTR InstName V1
SYMATTR Value {-Vsup}
SYMBOL voltage 1824 624 R0
WINDOW 123 0 0 Left 2
WINDOW 39 0 0 Left 2
SYMATTR InstName V2
SYMATTR Value {Vsup}
SYMBOL voltage 1536 1552 R0
WINDOW 123 24 124 Left 2
WINDOW 39 0 0 Left 2
SYMATTR Value2 AC 1
SYMATTR InstName V3
SYMATTR Value PULSE(-2 2 0 100m 100m 0)
SYMBOL SpecialFunctions\\LT1166 2672 1504 R0
SYMATTR InstName U2
SYMBOL cap 2848 1232 R0
SYMATTR InstName C2
SYMATTR Value 300p
SYMBOL res 3088 1200 R90
WINDOW 0 0 56 VBottom 2
WINDOW 3 32 56 VTop 2
SYMATTR InstName R14
SYMATTR Value 1
SYMBOL nmos 3264 1136 R0
SYMATTR InstName M3
SYMATTR Value IRFP240
SYMBOL cap 2848 1424 R0
SYMATTR InstName C3
SYMATTR Value 1µ
SYMBOL cap 2848 1504 R0
SYMATTR InstName C4
SYMATTR Value 1µ
SYMBOL cap 2848 1776 R0
SYMATTR InstName C5
SYMATTR Value 300p
SYMBOL res 3088 1728 R90
WINDOW 0 0 56 VBottom 2
WINDOW 3 32 56 VTop 2
SYMATTR InstName R15
SYMATTR Value 100
SYMBOL pmos 3264 1824 M180
SYMATTR InstName M4
SYMATTR Value IRFP9240
SYMBOL res 3296 1392 R0
SYMATTR InstName R16
SYMATTR Value 0.2
SYMBOL res 3296 1504 R0
SYMATTR InstName R17
SYMATTR Value 0.2
SYMBOL res 3536 1712 R0
SYMATTR InstName R18
SYMATTR Value 2
SYMBOL res 2448 1488 R90
WINDOW 0 0 56 VBottom 2
WINDOW 3 32 56 VTop 2
SYMATTR InstName R19
SYMATTR Value 1k
SYMBOL res 3136 1376 R90
WINDOW 0 0 56 VBottom 2
WINDOW 3 32 56 VTop 2
SYMATTR InstName R20
SYMATTR Value 1k
SYMBOL res 3024 1632 R270
WINDOW 0 32 56 VTop 2
WINDOW 3 0 56 VBottom 2
SYMATTR InstName R21
SYMATTR Value 1k
SYMBOL res 3536 1920 R0
SYMATTR InstName R23
SYMATTR Value 0.1
SYMBOL current 2672 1104 R0
WINDOW 123 0 0 Left 2
WINDOW 39 0 0 Left 2
SYMATTR InstName I3
SYMATTR Value {Is}
SYMBOL current 2672 1776 R0
WINDOW 123 0 0 Left 2
WINDOW 39 0 0 Left 2
SYMATTR InstName I4
SYMATTR Value {Is}
SYMBOL ind 3536 1568 R0
SYMATTR InstName L1
SYMATTR Value 180µ
TEXT 2064 696 Left 2 !.param Vsup=30\n.param Ik=3.9m\n.param R1=10k\n.param R2=20k\n.param rail=0
TEXT 2080 840 Left 2 !.tran 100m startup
TEXT 2448 664 Left 2 ;designfeature By Grayson King and Tim Watkins, Analog Devices Inc\n \nBootstrapping your op amp\nyields wide voltage swings
TEXT 2840 800 Left 2 ;abs(V(Op+)-V(op-))
TEXT 2456 848 Left 2 ;.step param R2 40k 10k 5k
TEXT 2448 872 Left 2 ;.step param rail 0 -5 -1
TEXT 2816 880 Left 2 !.param Is=10m
TEXT 2472 808 Left 2 ;.step param Is 10m 30m 5m
