Version 4
SHEET 1 3596 2632
WIRE -736 -640 -768 -640
WIRE -704 -640 -736 -640
WIRE -624 -640 -656 -640
WIRE -592 -640 -624 -640
WIRE -512 -592 -544 -592
WIRE -480 -592 -512 -592
WIRE -400 -592 -432 -592
WIRE -368 -592 -400 -592
WIRE -768 -560 -768 -576
WIRE -288 -544 -320 -544
WIRE -256 -544 -288 -544
WIRE -176 -544 -208 -544
WIRE -144 -544 -176 -544
WIRE -544 -512 -544 -528
WIRE -320 -464 -320 -480
WIRE 208 -416 128 -416
WIRE 288 -416 272 -416
WIRE 464 -416 432 -416
WIRE 576 -416 528 -416
WIRE 208 -384 128 -384
WIRE 288 -384 288 -416
WIRE 288 -384 272 -384
WIRE 208 -352 128 -352
WIRE 288 -352 288 -384
WIRE 288 -352 272 -352
WIRE 432 -336 432 -416
WIRE 464 -336 432 -336
WIRE 576 -336 576 -416
WIRE 576 -336 544 -336
WIRE 656 -336 656 -368
WIRE 496 -256 496 -272
WIRE 880 -256 800 -256
WIRE 1072 -256 944 -256
WIRE 208 -240 160 -240
WIRE 288 -240 288 -352
WIRE 320 -240 288 -240
WIRE 432 -240 432 -336
WIRE 432 -240 400 -240
WIRE 464 -240 432 -240
WIRE 160 -224 160 -240
WIRE 576 -224 576 -336
WIRE 576 -224 528 -224
WIRE 656 -224 656 -272
WIRE 656 -224 576 -224
WIRE 720 -224 656 -224
WIRE 736 -224 720 -224
WIRE 464 -208 448 -208
WIRE 448 -176 448 -208
WIRE 496 -176 496 -192
WIRE 800 -176 800 -256
WIRE 880 -176 800 -176
WIRE 1072 -176 1072 -256
WIRE 1072 -176 960 -176
WIRE 160 -96 160 -144
WIRE 288 -96 288 -128
WIRE 656 -80 656 -224
WIRE 688 -80 656 -80
WIRE 800 -80 800 -176
WIRE 800 -80 768 -80
WIRE 928 -64 928 -80
WIRE 800 -48 800 -80
WIRE 896 -48 800 -48
WIRE 1072 -32 1072 -176
WIRE 1072 -32 960 -32
WIRE 1120 -32 1072 -32
WIRE 1136 -32 1120 -32
WIRE 448 -16 432 -16
WIRE 576 -16 512 -16
WIRE 864 -16 800 -16
WIRE 896 -16 864 -16
WIRE 208 0 128 0
WIRE 288 0 272 0
WIRE 688 16 656 16
WIRE 800 16 800 -16
WIRE 800 16 768 16
WIRE 928 16 928 0
WIRE 208 32 128 32
WIRE 288 32 288 0
WIRE 288 32 272 32
WIRE 864 48 864 -16
WIRE 208 64 128 64
WIRE 288 64 288 32
WIRE 288 64 272 64
WIRE 432 64 432 -16
WIRE 448 64 432 64
WIRE 576 64 576 -16
WIRE 576 64 528 64
WIRE 800 64 800 16
WIRE -624 96 -656 96
WIRE -480 96 -560 96
WIRE 496 144 496 128
WIRE 96 160 80 160
WIRE 224 160 176 160
WIRE 288 160 288 64
WIRE 320 160 288 160
WIRE 432 160 432 64
WIRE 432 160 400 160
WIRE 464 160 432 160
WIRE -656 176 -656 96
WIRE -624 176 -656 176
WIRE -480 176 -480 96
WIRE -480 176 -544 176
WIRE 176 176 176 160
WIRE 576 176 576 64
WIRE 576 176 528 176
WIRE 656 176 656 16
WIRE 656 176 576 176
WIRE 720 176 656 176
WIRE 736 176 720 176
WIRE 800 176 800 128
WIRE 864 176 864 128
WIRE 464 192 448 192
WIRE 656 208 656 176
WIRE 448 224 448 192
WIRE 496 224 496 208
WIRE -592 272 -592 256
WIRE -848 288 -912 288
WIRE -800 288 -848 288
WIRE -768 288 -800 288
WIRE -656 288 -656 176
WIRE -656 288 -688 288
WIRE -624 288 -656 288
WIRE 656 288 656 272
WIRE -912 304 -912 288
WIRE -480 304 -480 176
WIRE -480 304 -560 304
WIRE 176 304 176 256
WIRE -624 320 -640 320
WIRE 288 320 288 272
WIRE -800 336 -800 288
WIRE -640 352 -640 320
WIRE -592 352 -592 336
WIRE 640 416 576 416
WIRE 752 416 704 416
WIRE -912 432 -912 384
WIRE -800 432 -800 400
WIRE 240 432 240 416
WIRE 496 432 496 416
WIRE 864 432 864 400
WIRE 240 464 240 432
WIRE 256 464 240 464
WIRE 368 464 336 464
WIRE 400 464 368 464
WIRE 496 464 496 432
WIRE 496 464 480 464
WIRE 240 496 240 464
WIRE 368 496 368 464
WIRE 496 496 496 464
WIRE 576 496 576 416
WIRE 640 496 576 496
WIRE 752 496 752 416
WIRE 752 496 704 496
WIRE -464 528 -512 528
WIRE 864 528 864 512
WIRE -464 560 -512 560
WIRE 864 560 864 528
WIRE 640 576 640 560
WIRE -464 592 -512 592
WIRE 240 592 240 576
WIRE 368 592 368 576
WIRE 368 592 240 592
WIRE 496 592 496 576
WIRE 496 592 368 592
WIRE 576 592 576 496
WIRE 576 592 496 592
WIRE 608 592 576 592
WIRE 176 608 176 592
WIRE 240 608 240 592
WIRE 720 608 672 608
WIRE 752 608 752 496
WIRE 752 608 720 608
WIRE 784 608 752 608
WIRE 800 608 784 608
WIRE -464 624 -512 624
WIRE 496 624 496 592
WIRE 608 624 576 624
WIRE 640 656 640 640
WIRE 576 672 576 624
WIRE 176 704 176 688
WIRE 240 704 240 688
WIRE 240 704 176 704
WIRE 176 720 176 704
WIRE 720 720 720 608
WIRE 736 720 720 720
WIRE 864 720 864 656
WIRE 864 720 816 720
WIRE 496 768 496 704
WIRE 176 832 176 800
WIRE 704 864 688 864
WIRE 768 864 704 864
WIRE 864 864 864 720
WIRE 864 864 848 864
FLAG 80 -240 0
FLAG 288 -96 0
FLAG 496 -272 Vp
FLAG 496 -176 Vm
FLAG 496 128 Vp
FLAG 496 224 Vm
FLAG 928 -80 Vp
FLAG 928 16 Vm
FLAG 640 560 Vp
FLAG 640 656 Vm
FLAG 448 -176 0
FLAG 448 224 0
FLAG 864 176 0
FLAG 800 176 0
FLAG 288 320 0
FLAG 80 160 0
FLAG 720 176 Vb
FLAG 720 -224 Va
FLAG 176 592 Vp10
FLAG 176 832 Vm10
FLAG 496 768 Vm10
FLAG 864 400 Vp
FLAG 576 672 0
FLAG 704 864 AGC_out
FLAG 1120 -32 Vpos
FLAG 784 608 bq1
FLAG 864 528 c_q1
FLAG 864 720 e_q1
FLAG -912 432 0
FLAG -800 432 0
FLAG -592 256 Vp
FLAG -592 352 Vm
FLAG -640 352 0
FLAG -848 288 in
FLAG -480 96 outop
FLAG -768 -560 0
FLAG 288 -240 Via
FLAG 288 160 Vib
FLAG -656 -560 0
FLAG -736 -640 Via_center
FLAG -624 -640 Vib_center
FLAG 160 -96 0
FLAG 176 304 0
FLAG -544 -512 0
FLAG -432 -512 0
FLAG -512 -592 Via_cw
FLAG -400 -592 Vib_cw
FLAG -320 -464 0
FLAG -208 -464 0
FLAG -288 -544 Via_ccw
FLAG -176 -544 Vib_ccw
FLAG 128 -416 Via_center
FLAG 128 -384 Via_cw
FLAG 128 -352 Via_ccw
FLAG 128 0 Vib_center
FLAG 128 32 Vib_cw
FLAG 128 64 Vib_ccw
FLAG 496 432 Vb
FLAG 240 432 Va
FLAG -464 560 Vm
FLAG -464 528 Vp
FLAG -464 624 Vm10
FLAG -464 592 Vp10
FLAG 656 -368 Via_cw
FLAG 656 288 Vib_cw
FLAG 288 208 0
FLAG 288 -192 0
SYMBOL current 160 -240 R90
WINDOW 0 -32 40 VBottom 2
WINDOW 3 -63 15 VBottom 2
WINDOW 123 0 0 Left 2
WINDOW 39 0 0 Left 2
SYMATTR InstName Ia
SYMATTR Value SINE(500u 100u 1.5meg 3u)
SYMBOL current 176 160 R90
WINDOW 0 -32 40 VBottom 2
WINDOW 3 47 91 VTop 2
WINDOW 123 0 0 Left 2
WINDOW 39 0 0 Left 2
SYMATTR InstName Ib
SYMATTR Value SINE(0 250u 1k)
SYMBOL cap 272 -192 R0
SYMATTR InstName C1
SYMATTR Value 470p
SYMBOL res 560 -352 R90
WINDOW 0 0 56 VBottom 2
WINDOW 3 32 56 VTop 2
SYMATTR InstName R2
SYMATTR Value 16.9k
SYMBOL res 416 -256 R90
WINDOW 0 0 56 VBottom 2
WINDOW 3 32 56 VTop 2
SYMATTR InstName R3
SYMATTR Value 453
SYMBOL res 544 48 R90
WINDOW 0 0 56 VBottom 2
WINDOW 3 32 56 VTop 2
SYMATTR InstName R4
SYMATTR Value 16.9k
SYMBOL res 416 144 R90
WINDOW 0 0 56 VBottom 2
WINDOW 3 32 56 VTop 2
SYMATTR InstName R5
SYMATTR Value 453
SYMBOL res 784 -96 R90
WINDOW 0 0 56 VBottom 2
WINDOW 3 32 56 VTop 2
SYMATTR InstName R6
SYMATTR Value 2k
SYMBOL res 784 0 R90
WINDOW 0 0 56 VBottom 2
WINDOW 3 32 56 VTop 2
SYMATTR InstName R7
SYMATTR Value 2k
SYMBOL res 976 -192 R90
WINDOW 0 0 56 VBottom 2
WINDOW 3 32 56 VTop 2
SYMATTR InstName R8
SYMATTR Value 4.53k
SYMBOL res 848 144 M180
WINDOW 0 36 76 Left 2
WINDOW 3 36 40 Left 2
SYMATTR InstName R9
SYMATTR Value 4.53k
SYMBOL cap 528 -432 R90
WINDOW 0 0 32 VBottom 2
WINDOW 3 32 32 VTop 2
SYMATTR InstName C2
SYMATTR Value 330p
SYMBOL cap 304 272 R180
WINDOW 0 24 56 Left 2
WINDOW 3 24 8 Left 2
SYMATTR InstName C3
SYMATTR Value 470p
SYMBOL cap 448 0 R270
WINDOW 0 32 32 VTop 2
WINDOW 3 0 32 VBottom 2
SYMATTR InstName C4
SYMATTR Value 330p
SYMBOL cap 880 -240 R270
WINDOW 0 32 32 VTop 2
WINDOW 3 0 32 VBottom 2
SYMATTR InstName C5
SYMATTR Value 1.2n
SYMBOL cap 784 64 R0
SYMATTR InstName C6
SYMATTR Value 1.2n
SYMBOL cap 704 480 R90
WINDOW 0 0 32 VBottom 2
WINDOW 3 32 32 VTop 2
SYMATTR InstName C7
SYMATTR Value 10n
SYMBOL Opamps\\LT1014 496 -288 R0
SYMATTR InstName U3
SYMBOL Opamps\\LT1014 496 112 R0
SYMATTR InstName U1
SYMBOL Opamps\\LT1014 928 -96 R0
SYMATTR InstName U2
SYMBOL Opamps\\LT1014 640 544 R0
SYMATTR InstName U5
SYMBOL res 192 592 M0
SYMATTR InstName R10
SYMATTR Value {(1-R13set)*R13}
SYMBOL res 192 704 M0
SYMATTR InstName R11
SYMATTR Value {R13set*R13}
SYMBOL res 224 592 R0
SYMATTR InstName R12
SYMATTR Value 49.9k
SYMBOL res 224 480 R0
SYMATTR InstName R13
SYMATTR Value 10k
SYMBOL res 352 480 R0
SYMATTR InstName R14
SYMATTR Value 200k
SYMBOL res 496 480 M270
WINDOW 0 32 56 VTop 2
WINDOW 3 106 49 VBottom 2
SYMATTR InstName R15
SYMATTR Value {(1-R77set)*R77}
SYMBOL res 352 480 M270
WINDOW 0 32 56 VTop 2
WINDOW 3 105 74 VBottom 2
SYMATTR InstName R16
SYMATTR Value {R77set*R77}
SYMBOL res 480 480 R0
SYMATTR InstName R17
SYMATTR Value 10k
SYMBOL res 480 608 R0
SYMATTR InstName R18
SYMATTR Value 5.49k
SYMBOL diode 640 432 R270
WINDOW 0 32 32 VTop 2
WINDOW 3 0 32 VBottom 2
SYMATTR InstName D1
SYMATTR Value 1N4148
SYMBOL npn 800 560 R0
SYMATTR InstName Q1
SYMATTR Value 2N5769
SYMBOL res 864 848 R90
WINDOW 0 0 56 VBottom 2
WINDOW 3 32 56 VTop 2
SYMATTR InstName R19
SYMATTR Value 10
SYMBOL res 720 736 R270
WINDOW 0 32 56 VTop 2
WINDOW 3 0 56 VBottom 2
SYMATTR InstName R20
SYMATTR Value 150
SYMBOL res 848 416 R0
SYMATTR InstName R21
SYMATTR Value 10n
SYMBOL cap -816 336 R0
SYMATTR InstName C8
SYMATTR Value 470p
SYMBOL res -528 160 R90
WINDOW 0 0 56 VBottom 2
WINDOW 3 32 56 VTop 2
SYMATTR InstName R22
SYMATTR Value 16.9k
SYMBOL res -672 272 R90
WINDOW 0 0 56 VBottom 2
WINDOW 3 32 56 VTop 2
SYMATTR InstName R23
SYMATTR Value 453
SYMBOL Opamps\\LT1014 -592 240 R0
SYMATTR InstName U4
SYMBOL cap -560 80 R90
WINDOW 0 0 32 VBottom 2
WINDOW 3 32 32 VTop 2
SYMATTR InstName C9
SYMATTR Value {cp1}
SYMBOL voltage -912 288 R0
WINDOW 123 0 0 Left 2
WINDOW 39 0 0 Left 2
SYMATTR InstName V7
SYMATTR Value ac 1
SYMBOL source-V -768 -656 R0
WINDOW 3 -9 -54 Left 2
WINDOW 123 0 0 Left 2
WINDOW 39 0 0 Left 2
SYMATTR Value wavefile="N:/data_notebook/HS_Karlsruhe/xy_galvoscanner/bilder_screenshots_messungen/31-03-2015_tests_posDemod/PCSU_0mA_ch12.wav" chan=0
SYMATTR InstName V9
SYMBOL source-V -656 -656 R0
WINDOW 3 -61 -26 Left 2
WINDOW 123 0 0 Left 2
WINDOW 39 0 0 Left 2
SYMATTR Value wavefile="N:/data_notebook/HS_Karlsruhe/xy_galvoscanner/bilder_screenshots_messungen/31-03-2015_tests_posDemod/PCSU_0mA_ch12.wav" chan=1
SYMATTR InstName V8
SYMBOL res 144 -240 R0
SYMATTR InstName R26
SYMATTR Value 1meg
SYMBOL res 160 160 R0
SYMATTR InstName R27
SYMATTR Value 1meg
SYMBOL source-V -544 -608 R0
WINDOW 3 -5 -43 Left 2
WINDOW 123 0 0 Left 2
WINDOW 39 0 0 Left 2
SYMATTR Value wavefile="N:/data_notebook/HS_Karlsruhe/xy_galvoscanner/bilder_screenshots_messungen/31-03-2015_tests_posDemod/PCSU_100mA_cw_ch12.wav" chan=0
SYMATTR InstName V10
SYMBOL source-V -432 -608 R0
WINDOW 3 -57 -19 Left 2
WINDOW 123 0 0 Left 2
WINDOW 39 0 0 Left 2
SYMATTR Value wavefile="N:/data_notebook/HS_Karlsruhe/xy_galvoscanner/bilder_screenshots_messungen/31-03-2015_tests_posDemod/PCSU_100mA_cw_ch12.wav" chan=1
SYMATTR InstName V11
SYMBOL source-V -320 -560 R0
WINDOW 3 -7 -41 Left 2
WINDOW 123 0 0 Left 2
WINDOW 39 0 0 Left 2
SYMATTR Value wavefile="N:/data_notebook/HS_Karlsruhe/xy_galvoscanner/bilder_screenshots_messungen/31-03-2015_tests_posDemod/PCSU_100mA_ccw_ch12.wav" chan=0
SYMATTR InstName V12
SYMBOL source-V -208 -560 R0
WINDOW 3 -54 -17 Left 2
WINDOW 123 0 0 Left 2
WINDOW 39 0 0 Left 2
SYMATTR Value wavefile="N:/data_notebook/HS_Karlsruhe/xy_galvoscanner/bilder_screenshots_messungen/31-03-2015_tests_posDemod/PCSU_100mA_ccw_ch12.wav" chan=1
SYMATTR InstName V13
SYMBOL MDB_sym\\jumperRes 240 -480 R0
SYMATTR InstName U9
SYMBOL MDB_sym\\jumperRes 240 -64 R0
SYMATTR InstName U6
SYMBOL source-Vmarker -512 528 R0
SYMATTR Value V=20V
SYMATTR InstName U7
SYMBOL source-Vmarker -512 560 R0
SYMATTR Value V=-20V
SYMATTR InstName U8
SYMBOL source-Vmarker -512 592 R0
SYMATTR Value V=10V
SYMATTR InstName U10
SYMBOL source-Vmarker -512 624 R0
SYMATTR Value V=-10V
SYMATTR InstName U11
TEXT -40 432 Left 2 !.param R13=20k\n.param R13set=0.5\n.param R77=10k\n.param R77set=0.5
TEXT -352 432 Left 2 !.tran 0 500u 0
TEXT -472 240 Left 2 !.param cp1=330p\n;.step param cp1 list 330p 1e-30
TEXT -736 -424 Left 2 ;PosDemod v1.1 measure @ +-19V supply:\nAussteuerung mit ca. +-100mA\n---------------------------------------------\n---  Galvo #0 (sensor rep)\n---------------------------------------------\ncarrier frequency:    1.45MHz\nChannel IA1: DC range  -190 ... -282mV @ Clock wise mirror rotation\n...\n---------------------------------------------\n---  Galvo #1\n---------------------------------------------\ncarrier frequency:    1.52MHz\nChannel IA1: DC range  -180.0 ... -300.9mV @ Clock wise mirror rotation\nChannel IB1: DC range  -169.8 ... -292.3mV @ Clock wise mirror rotation\nMit aktueller trimmerjustierung ergibts sich:\nV_pos range : -11.06V ... 9.51V
TEXT -352 448 Left 2 !.options  plotwinsize=0
