Version 4
SHEET 1 1748 1268
WIRE 96 -16 48 -16
WIRE 224 -16 160 -16
WIRE 800 32 752 32
WIRE 912 32 864 32
WIRE 48 80 48 -16
WIRE 80 80 48 80
WIRE 224 80 224 -16
WIRE 224 80 160 80
WIRE 752 112 752 32
WIRE 784 112 752 112
WIRE 912 112 912 32
WIRE 912 112 864 112
WIRE -112 144 -432 144
WIRE -80 144 -112 144
WIRE -48 144 -80 144
WIRE 48 144 48 80
WIRE 48 144 32 144
WIRE 96 144 48 144
WIRE 208 160 160 160
WIRE 224 160 224 80
WIRE 224 160 208 160
WIRE 400 160 224 160
WIRE -80 176 -80 144
WIRE 96 176 80 176
WIRE 80 208 80 176
WIRE 400 240 400 160
WIRE 512 240 400 240
WIRE 752 240 752 112
WIRE 752 240 592 240
WIRE 784 240 752 240
WIRE 912 256 912 112
WIRE 912 256 848 256
WIRE -208 272 -352 272
WIRE -80 272 -80 240
WIRE 784 272 752 272
WIRE 512 304 400 304
WIRE 656 304 592 304
WIRE 752 304 752 272
WIRE 752 304 656 304
WIRE -352 320 -352 272
WIRE -432 336 -432 144
WIRE 96 352 48 352
WIRE 224 352 160 352
WIRE 656 384 656 304
WIRE 752 384 752 304
WIRE -352 432 -352 400
WIRE 48 448 48 352
WIRE 80 448 48 448
WIRE 224 448 224 352
WIRE 224 448 160 448
WIRE -432 464 -432 384
WIRE 656 496 656 448
WIRE 752 496 752 464
WIRE -208 512 -208 272
WIRE -112 512 -208 512
WIRE -80 512 -112 512
WIRE -48 512 -80 512
WIRE 48 512 48 448
WIRE 48 512 32 512
WIRE 96 512 48 512
WIRE 208 528 160 528
WIRE 224 528 224 448
WIRE 224 528 208 528
WIRE 400 528 400 304
WIRE 400 528 224 528
WIRE -80 544 -80 512
WIRE 96 544 80 544
WIRE -432 576 -432 544
WIRE 80 576 80 544
WIRE -80 640 -80 608
FLAG -80 272 0
FLAG 80 208 0
FLAG -432 576 0
FLAG 208 160 out
FLAG -80 640 0
FLAG 80 576 0
FLAG 208 528 out2
FLAG 752 496 0
FLAG 656 496 0
FLAG -800 1248 0
FLAG 1712 1216 0
FLAG 1728 -512 0
FLAG -896 -496 0
FLAG -352 432 0
FLAG -112 144 in1
FLAG -112 512 in2
SYMBOL EIT_Semiconductors\\op_3 128 160 R0
SYMATTR InstName U1
SYMBOL res -64 160 R270
WINDOW 0 25 56 VTop 0
WINDOW 3 7 56 VBottom 0
SYMATTR InstName R1
SYMATTR Value 453
SYMBOL res 64 96 R270
WINDOW 0 25 56 VTop 0
WINDOW 3 7 56 VBottom 0
SYMATTR InstName R2
SYMATTR Value 16.9k
SYMBOL cap 96 0 R270
WINDOW 0 32 32 VTop 0
WINDOW 3 0 32 VBottom 0
SYMATTR InstName C1
SYMATTR Value 330p
SYMBOL cap -96 176 R0
SYMATTR InstName C2
SYMATTR Value 470p
SYMBOL EIT_Semiconductors\\op_3 128 528 R0
SYMATTR InstName U2
SYMBOL res -64 528 R270
WINDOW 0 25 56 VTop 0
WINDOW 3 7 56 VBottom 0
SYMATTR InstName R3
SYMATTR Value 453
SYMBOL res 64 464 R270
WINDOW 0 25 56 VTop 0
WINDOW 3 7 56 VBottom 0
SYMATTR InstName R4
SYMATTR Value 16.9k
SYMBOL cap 96 368 R270
WINDOW 0 32 32 VTop 0
WINDOW 3 0 32 VBottom 0
SYMATTR InstName C3
SYMATTR Value 330p
SYMBOL cap -96 544 R0
SYMATTR InstName C4
SYMATTR Value 470p
SYMBOL source-I -432 464 R0
WINDOW 3 29 129 Left 0
WINDOW 123 29 101 Left 0
WINDOW 39 0 0 Left 0
SYMATTR InstName I1
SYMATTR Value SINE(0 100u 10k)
SYMATTR Value2 AC 1
SYMBOL res 608 224 R90
WINDOW 0 7 56 VBottom 0
WINDOW 3 25 56 VTop 0
SYMATTR InstName R5
SYMATTR Value 2k
SYMBOL res 608 288 R90
WINDOW 0 7 56 VBottom 0
WINDOW 3 25 56 VTop 0
SYMATTR InstName R6
SYMATTR Value 2k
SYMBOL cap 640 384 R0
SYMATTR InstName C5
SYMATTR Value 1.2n
SYMBOL res 736 368 R0
SYMATTR InstName R8
SYMATTR Value 4.53k
SYMBOL res 880 96 R90
WINDOW 0 7 56 VBottom 0
WINDOW 3 25 56 VTop 0
SYMATTR InstName R9
SYMATTR Value 4.53k
SYMBOL EIT_Semiconductors\\op_3 816 256 R0
SYMATTR InstName U3
SYMBOL cap 864 16 R90
WINDOW 0 0 32 VBottom 0
WINDOW 3 32 32 VTop 0
SYMATTR InstName C6
SYMATTR Value 1.2n
SYMBOL crtl-I-I -352 304 R0
SYMATTR InstName U4
TEXT -548 624 Left 0 !;ac oct 100 1k 100meg
TEXT -312 520 Left 0 !.ac oct 100 1k 100meg
