Version 4
SHEET 1 1140 680
WIRE -32 -576 -240 -576
WIRE 128 -576 -32 -576
WIRE 464 -576 128 -576
WIRE 800 -576 464 -576
WIRE -32 -544 -32 -576
WIRE 128 -544 128 -576
WIRE 464 -528 464 -576
WIRE 400 -480 352 -480
WIRE 800 -432 800 -576
WIRE -32 -384 -32 -464
WIRE 176 -384 -32 -384
WIRE 192 -384 176 -384
WIRE 352 -384 352 -480
WIRE 352 -384 256 -384
WIRE 368 -384 352 -384
WIRE 464 -384 464 -432
WIRE 464 -384 432 -384
WIRE 656 -384 464 -384
WIRE 720 -384 656 -384
WIRE 736 -384 720 -384
WIRE 800 -304 800 -336
WIRE -32 -288 -32 -384
WIRE 128 -288 128 -464
WIRE -128 -240 -256 -240
WIRE -96 -240 -128 -240
WIRE 208 -240 192 -240
WIRE 240 -240 208 -240
WIRE 656 -224 656 -384
WIRE 800 -208 800 -224
WIRE 880 -208 800 -208
WIRE 944 -208 880 -208
WIRE 1072 -208 944 -208
WIRE 208 -176 208 -240
WIRE 240 -176 240 -240
WIRE 800 -176 800 -208
WIRE -256 -160 -256 -240
WIRE 1072 -128 1072 -208
WIRE -32 -80 -32 -192
WIRE 48 -80 -32 -80
WIRE 128 -80 128 -192
WIRE 128 -80 48 -80
WIRE 240 -80 240 -112
WIRE 800 -64 800 -96
WIRE -256 -48 -256 -80
WIRE 48 -48 48 -80
WIRE 656 -16 656 -144
WIRE 656 -16 432 -16
WIRE 704 -16 656 -16
WIRE 736 -16 704 -16
WIRE 432 0 432 -16
WIRE 1072 80 1072 -48
WIRE 48 112 48 32
WIRE 48 112 -240 112
WIRE 432 112 432 80
WIRE 432 112 48 112
WIRE 800 112 800 32
WIRE 800 112 432 112
WIRE 96 256 48 256
WIRE 208 256 208 -112
WIRE 208 256 176 256
WIRE 240 256 208 256
WIRE 944 256 944 -208
WIRE 944 256 320 256
FLAG 208 -240 Ue2
FLAG -128 -240 Ue1
FLAG 176 -384 Ua1a
FLAG 48 256 0
FLAG 1072 80 0
FLAG -256 -48 0
FLAG 880 -208 out
FLAG 720 -384 b1
FLAG 704 -16 b2
FLAG 240 -80 0
SYMBOL EIT_Semiconductors\\npn -96 -288 R0
WINDOW 3 52 57 Left 2
SYMATTR Value npnx
SYMATTR InstName T9
SYMBOL current 48 -48 R0
WINDOW 123 0 0 Left 2
WINDOW 39 0 0 Left 2
SYMATTR InstName I1
SYMATTR Value {Ic0}
SYMBOL res 112 -560 R0
SYMATTR InstName R1
SYMATTR Value {Rc}
SYMBOL res -48 -560 R0
SYMATTR InstName R2
SYMATTR Value {Rc}
SYMBOL source-Vmarker -240 -576 R0
SYMATTR Value V=30V
SYMATTR InstName U1
SYMBOL source-Vmarker -240 112 R0
SYMATTR Value V=-30V
SYMATTR InstName U2
SYMBOL EIT_Semiconductors\\npn 192 -288 M0
WINDOW 3 52 57 Left 2
SYMATTR Value npnx
SYMATTR InstName T8
SYMBOL cap 432 -400 R90
WINDOW 0 0 32 VBottom 2
WINDOW 3 32 32 VTop 2
SYMATTR InstName C1
SYMATTR Value {Ck}
SYMBOL EIT_Semiconductors\\pnp 400 -432 M180
SYMATTR InstName Q1
SYMATTR Value PNPx
SYMBOL EIT_Semiconductors\\npn 736 -432 R0
WINDOW 3 52 57 Left 2
SYMATTR Value npnx
SYMATTR InstName T1
SYMBOL res 784 -320 R0
SYMATTR InstName R3
SYMATTR Value 1
SYMBOL res 784 -192 R0
SYMATTR InstName R4
SYMATTR Value 1
SYMBOL EIT_Semiconductors\\pnp 736 32 M180
SYMATTR InstName T2
SYMATTR Value PNPx
SYMBOL source-V 656 -240 R0
WINDOW 123 0 0 Left 2
WINDOW 39 0 0 Left 2
SYMATTR InstName V1
SYMATTR Value 2
SYMBOL current 432 0 R0
WINDOW 123 0 0 Left 2
WINDOW 39 0 0 Left 2
SYMATTR InstName I2
SYMATTR Value {Iq}
SYMBOL res 192 240 R90
WINDOW 0 7 56 VBottom 2
WINDOW 3 25 56 VTop 2
SYMATTR InstName R5
SYMATTR Value 1k
SYMBOL res 336 240 R90
WINDOW 0 7 56 VBottom 2
WINDOW 3 25 56 VTop 2
SYMATTR InstName R6
SYMATTR Value 1k
SYMBOL res 1056 -144 R0
SYMATTR InstName R7
SYMATTR Value 100
SYMBOL source-V -256 -176 M0
WINDOW 123 0 0 Left 2
WINDOW 39 0 0 Left 2
SYMATTR InstName V2
SYMATTR Value SINE(0 50m 1k)
SYMBOL Misc\\jumper 224 -448 R0
SYMATTR InstName X1
SYMBOL Misc\\jumper 272 -144 R90
SYMATTR InstName X2
TEXT -216 -760 Left 2 !.model npnx npn ( Is= {Ic0/exp(0.7/26m)} bf=250 )\n.model pnpx pnp ( Is= {Ic0/exp(0.7/26m)} bf=250 )
TEXT -488 -760 Left 2 !.param Ic0=200u\n.param Iq=2m\n.param Rc = 35k\n.param Ck=10u
TEXT 408 -776 Left 2 !.tran 2m
RECTANGLE Normal 288 176 -192 -608 1
RECTANGLE Normal 560 176 320 -608 1
RECTANGLE Normal 992 176 592 -608 1
