Version 4
SHEET 1 2752 796
WIRE 2400 -544 2400 -576
WIRE 1392 -528 1392 -576
WIRE 1392 -480 1392 -528
WIRE 2160 -448 2160 -560
WIRE 2288 -448 2160 -448
WIRE 1488 -400 1456 -400
WIRE 1600 -400 1488 -400
WIRE 2160 -400 2160 -448
WIRE 1488 -368 1488 -400
WIRE 1600 -368 1600 -400
WIRE 1072 -320 1072 -368
WIRE 2288 -320 2288 -448
WIRE 1072 -272 1072 -320
WIRE 2160 -272 2160 -320
WIRE 2224 -272 2160 -272
WIRE 1392 -256 1392 -320
WIRE 1488 -256 1488 -288
WIRE 1488 -256 1392 -256
WIRE 640 -240 640 -288
WIRE 1488 -224 1488 -256
WIRE 2160 -224 2160 -272
WIRE 2400 -224 2400 -464
WIRE 1168 -192 1136 -192
WIRE 1216 -192 1168 -192
WIRE 1392 -176 1392 -256
WIRE 1424 -176 1392 -176
WIRE 1872 -176 1856 -176
WIRE 1952 -176 1952 -208
WIRE 1952 -176 1872 -176
WIRE 2288 -176 2288 -224
WIRE 2288 -176 2224 -176
WIRE 2336 -176 2288 -176
WIRE 736 -160 704 -160
WIRE 1168 -160 1168 -192
WIRE 1952 -144 1952 -176
WIRE 736 -128 736 -160
WIRE -512 -96 -512 -144
WIRE -416 -96 -416 -144
WIRE 1856 -96 1856 -176
WIRE 1888 -96 1856 -96
WIRE 2160 -96 2160 -128
WIRE 2400 -96 2400 -128
WIRE 1216 -80 1216 -192
WIRE 1072 -64 1072 -112
WIRE 1168 -64 1168 -80
WIRE 1168 -64 1072 -64
WIRE 1488 -64 1488 -128
WIRE 1600 -64 1600 -288
WIRE 1600 -64 1488 -64
WIRE -128 -48 -144 -48
WIRE -48 -48 -48 -80
WIRE -48 -48 -128 -48
WIRE 256 -32 256 -80
WIRE 640 -32 640 -80
WIRE 736 -32 736 -48
WIRE 736 -32 640 -32
WIRE 1072 -32 1072 -64
WIRE -48 -16 -48 -48
WIRE 256 0 256 -32
WIRE 1488 0 1488 -64
WIRE 1952 16 1952 -48
WIRE 2160 16 2160 -16
WIRE 2400 16 2400 -16
WIRE -512 32 -512 -16
WIRE -464 32 -512 32
WIRE -416 32 -416 -16
WIRE -416 32 -464 32
WIRE -144 32 -144 -48
WIRE -112 32 -144 32
WIRE 640 32 640 -32
WIRE 640 32 528 32
WIRE -464 64 -464 32
WIRE 448 64 448 32
WIRE 640 64 640 32
WIRE 1072 64 1072 32
WIRE 1168 64 1072 64
WIRE 1216 64 1216 0
WIRE 1216 64 1168 64
WIRE 1488 96 1488 80
WIRE 256 112 256 64
WIRE -48 144 -48 80
WIRE 1168 144 1168 64
WIRE 640 160 640 144
WIRE 448 176 448 144
WIRE 880 208 880 160
WIRE 1168 240 1168 224
WIRE 768 288 768 256
WIRE 880 336 880 288
WIRE 768 384 768 368
WIRE 816 384 768 384
WIRE 768 432 768 384
WIRE 880 464 880 432
WIRE 880 464 800 464
WIRE 880 496 880 464
WIRE 768 592 768 496
WIRE 816 592 768 592
WIRE 880 592 880 576
WIRE 880 592 816 592
FLAG -48 -160 0
FLAG -48 144 0
FLAG 256 -160 0
FLAG 256 112 0
FLAG -128 -48 bc
FLAG 256 -32 d
FLAG 640 -288 Vplus
FLAG 640 160 0
FLAG 1072 -320 Vplus
FLAG 1168 240 0
FLAG -464 64 0
FLAG -416 -144 Vmin
FLAG -512 -144 Vplus
FLAG 1392 -528 Vplus
FLAG 1488 96 0
FLAG 1392 -256 bcl
FLAG 448 176 0
FLAG 1952 -288 0
FLAG 1952 16 0
FLAG 1872 -176 bc
FLAG 768 256 Vplus
FLAG 816 592 0
FLAG 880 160 Vplus
FLAG 2400 -576 Vplus
FLAG 2160 16 0
FLAG 2400 16 0
FLAG 2160 -560 Vplus
SYMBOL source-I -48 -80 R180
WINDOW 0 29 73 Left 2
WINDOW 3 29 17 Left 2
WINDOW 123 0 0 Left 2
WINDOW 39 0 0 Left 2
SYMATTR InstName I1
SYMATTR Value 4m
SYMBOL EIT_Semiconductors\\npn -112 -16 R0
SYMATTR InstName Q1
SYMATTR Value BC547BP
SYMBOL source-I 256 -80 R180
WINDOW 0 29 73 Left 2
WINDOW 3 29 17 Left 2
WINDOW 123 0 0 Left 2
WINDOW 39 0 0 Left 2
SYMATTR InstName I2
SYMATTR Value 1m
SYMBOL diode 240 0 R0
SYMATTR InstName D1
SYMATTR Value 1N4148
SYMBOL LM334 640 -160 R0
SYMATTR InstName U1
SYMBOL res 720 -144 R0
SYMATTR InstName R1
SYMATTR Value {Rset}
SYMBOL res 624 48 R0
SYMATTR InstName R3
SYMATTR Value 100
SYMBOL LM334 1072 -192 R0
SYMATTR InstName U2
SYMBOL res 1152 -176 R0
SYMATTR InstName R4
SYMATTR Value 48.52
SYMBOL diode 1056 -32 R0
SYMATTR InstName D3
SYMATTR Value 1N4148
SYMBOL res 1200 -96 R0
SYMATTR InstName R5
SYMATTR Value {48.52*6.0815}
SYMBOL res 1152 128 R0
SYMATTR InstName R6
SYMATTR Value 100
SYMBOL source-V -512 -112 R0
WINDOW 123 0 0 Left 2
WINDOW 39 0 0 Left 2
WINDOW 3 -87 97 Left 2
SYMATTR Value 12
SYMATTR InstName V1
SYMBOL source-V -416 -112 R0
WINDOW 123 0 0 Left 2
WINDOW 39 0 0 Left 2
WINDOW 3 19 95 Left 2
SYMATTR Value -12
SYMATTR InstName V2
SYMBOL LM334 1392 -400 R0
SYMATTR InstName U3
SYMBOL res 1472 -384 R0
SYMATTR InstName R2
SYMATTR Value 48.52
SYMBOL res 1584 -384 R0
SYMATTR InstName R7
SYMATTR Value {48.52*6.0815}
SYMBOL res 1472 -16 R0
SYMATTR InstName R8
SYMATTR Value 100
SYMBOL EIT_Semiconductors\\npn 1424 -224 R0
SYMATTR InstName Q2
SYMATTR Value BC547BP
SYMBOL source-V 448 48 R0
WINDOW 123 0 0 Left 2
WINDOW 39 0 0 Left 2
WINDOW 3 19 95 Left 2
SYMATTR Value 0
SYMATTR InstName V3
SYMBOL source-I 1952 -208 R180
WINDOW 0 29 73 Left 2
WINDOW 3 29 17 Left 2
WINDOW 123 0 0 Left 2
WINDOW 39 0 0 Left 2
SYMATTR InstName I3
SYMATTR Value 3m
SYMBOL pbss4350z 1888 -144 R0
SYMATTR InstName U4
SYMBOL res 784 272 M0
SYMATTR InstName R9
SYMATTR Value 4.7k
SYMBOL EIT_Semiconductors\\npn 816 336 R0
SYMATTR InstName Q3
SYMATTR Value BC547B
SYMBOL res 864 480 R0
SYMATTR InstName R10
SYMATTR Value 829
SYMBOL res 864 192 R0
SYMATTR InstName R11
SYMATTR Value 100
SYMBOL SBORKA\\REF\\tlv431_my 784 432 M0
SYMATTR InstName U5
SYMBOL res 2384 -112 R0
SYMATTR InstName R12
SYMATTR Value {Rref}
SYMBOL res 2144 -112 R0
SYMATTR InstName R13
SYMATTR Value {R2}
SYMBOL source-I 2160 -320 R180
WINDOW 0 29 73 Left 2
WINDOW 3 29 17 Left 2
WINDOW 123 0 0 Left 2
WINDOW 39 0 0 Left 2
SYMATTR InstName I5
SYMATTR Value {I0*(1+(TEMP-27)*0.0025)}
SYMBOL EIT_Semiconductors\\npn 2336 -224 R0
SYMATTR InstName Q4
SYMATTR Value FMMT624
SYMBOL EIT_Semiconductors\\npn 2224 -224 M0
SYMATTR InstName Q5
SYMATTR Value FMMT624
SYMBOL EIT_Semiconductors\\npn 2224 -320 R0
SYMATTR InstName Q6
SYMATTR Value FMMT624
SYMBOL res 2384 -560 R0
SYMATTR InstName R14
SYMATTR Value 100
TEXT -144 168 Left 2 ;.dc V3 0 20 0.1
TEXT 256 -400 Left 2 !.param Rset=17.36
TEXT 96 -320 Left 2 ;.step param Rset 17.35 17.38 0.005
TEXT -600 296 Left 2 !.op
TEXT 1784 -480 Left 2 !.step TEMP 0 100 1
TEXT 2464 -352 Left 2 !;.param Bias_b1=10m\n.param Rref=2k\n.param I0=100u\n.param Iq=1m\n.param R2={Iq/I0*Rref}
TEXT 1776 -616 Left 2 ;REF200:  25ppm/°C Temp. drift\n--> I_ref (T) = I0*(1+deltaT*0.0025)
