Version 4
SHEET 1 880 680
WIRE -416 -704 -448 -704
WIRE -224 -704 -256 -704
WIRE -448 -672 -448 -704
WIRE -256 -672 -256 -704
WIRE -448 -576 -448 -592
WIRE -256 -576 -256 -592
WIRE -256 -432 -592 -432
WIRE -288 -400 -816 -400
WIRE -816 -288 -816 -400
WIRE -800 -288 -816 -288
WIRE -880 -272 -912 -272
WIRE -512 -272 -752 -272
WIRE -288 -272 -288 -400
WIRE -288 -272 -320 -272
WIRE -880 -256 -880 -272
WIRE -800 -256 -816 -256
WIRE -672 -240 -688 -240
WIRE -624 -240 -672 -240
WIRE -512 -240 -624 -240
WIRE -816 -208 -816 -256
WIRE -720 -208 -816 -208
WIRE -256 -176 -256 -432
WIRE -256 -176 -320 -176
WIRE -192 -176 -256 -176
WIRE -880 -160 -880 -192
WIRE -848 -160 -880 -160
WIRE -800 -160 -848 -160
WIRE -880 -144 -880 -160
WIRE -720 -144 -720 -208
WIRE -720 -144 -752 -144
WIRE -800 -128 -832 -128
WIRE -592 -128 -592 -432
WIRE -512 -128 -592 -128
WIRE -624 -96 -624 -240
WIRE -512 -96 -624 -96
WIRE -880 -48 -880 -64
WIRE -256 -32 -320 -32
WIRE -416 48 -416 16
WIRE -832 80 -832 -128
WIRE -256 80 -256 -32
WIRE -256 80 -832 80
FLAG -256 -576 0
FLAG -256 -704 +5V
FLAG -448 -576 0
FLAG -448 -704 gen
FLAG -416 48 0
FLAG -672 -240 gen
FLAG -880 -48 0
FLAG -848 -160 IN1
FLAG -912 -272 +5V
FLAG -192 -176 out
IOPIN -192 -176 Out
SYMBOL source-V -256 -688 R0
WINDOW 123 0 0 Left 2
WINDOW 39 0 0 Left 2
SYMATTR InstName V1
SYMATTR Value 5
SYMBOL source-V -448 -688 R0
WINDOW 123 0 0 Left 2
WINDOW 39 0 0 Left 2
WINDOW 3 -56 159 Left 2
SYMATTR Value PULSE(0 5 0 10n 10n 100u 200u)
SYMATTR InstName V2
SYMBOL EIT_Digital\\level-low -512 -208 R0
SYMATTR InstName U9
SYMBOL EIT_Digital\\level-low -512 -64 R0
SYMATTR InstName U10
SYMBOL MDB_sym\\EXOR2s -784 -144 R0
SYMATTR InstName U21
SYMBOL res -864 -160 M0
SYMATTR InstName R4
SYMATTR Value 47k
SYMBOL cap -896 -256 R0
SYMATTR InstName C3
SYMATTR Value 10n
SYMBOL MDB_sym\\EXOR2s -784 -272 R0
SYMATTR InstName U22
SYMBOL MDB_sym\\CD4015B -416 -160 R0
SYMATTR InstName U23
SYMATTR Value2 VCC=5.5V
TEXT -840 -568 Left 2 !.param vpwr$_digital=5
TEXT -840 -600 Left 2 ;.tran 8m startup
TEXT -848 -496 Left 2 ;.ic V(IN1)=5V
TEXT -848 -528 Left 2 !.lib cd4000.lib
