Version 4
SHEET 1 880 680
WIRE -224 -272 -400 -272
WIRE -64 -272 -224 -272
WIRE 48 -272 16 -272
WIRE -304 -224 -320 -224
WIRE -400 -160 -400 -272
WIRE -368 -160 -400 -160
WIRE -48 -160 -80 -160
WIRE -32 -160 -48 -160
WIRE -80 -128 -80 -160
WIRE -320 -112 -320 -128
WIRE -224 -112 -224 -272
WIRE -224 -112 -320 -112
WIRE -96 -112 -224 -112
WIRE -320 -96 -320 -112
WIRE -32 -96 -48 -96
WIRE 48 -96 48 -272
WIRE 48 -96 -32 -96
WIRE -96 -80 -144 -80
WIRE -144 -16 -144 -80
WIRE -144 -16 -176 -16
WIRE -112 -16 -144 -16
WIRE -80 -16 -80 -64
WIRE -320 32 -320 -16
FLAG -80 -16 0
FLAG -48 -160 +5V
FLAG -144 -16 offs
FLAG -320 32 0
FLAG -320 -224 +5V
SYMBOL LTC6252 -64 -96 R0
SYMATTR InstName U1
SYMBOL res -80 -256 R270
WINDOW 0 32 56 VTop 2
WINDOW 3 85 56 VBottom 2
SYMATTR InstName R1
SYMATTR Value {1meg*2.2meg/(3.2meg)}
SYMBOL njf -368 -224 R0
SYMATTR InstName J1
SYMATTR Value JBF862
SYMBOL res -336 -112 R0
SYMATTR InstName Rs_mit_G1
SYMATTR Value 1k
