Version 4
SHEET 1 1256 680
WIRE 912 -1888 864 -1888
WIRE 960 -1888 912 -1888
WIRE 864 -1856 864 -1888
WIRE 864 -1760 864 -1776
WIRE 464 -1520 432 -1520
WIRE 544 -1520 528 -1520
WIRE 672 -1520 544 -1520
WIRE 816 -1520 816 -1552
WIRE 864 -1520 816 -1520
WIRE 864 -1504 864 -1520
WIRE 608 -1456 608 -1472
WIRE 544 -1440 544 -1520
WIRE 576 -1440 544 -1440
WIRE 672 -1424 672 -1520
WIRE 672 -1424 640 -1424
WIRE 704 -1424 672 -1424
WIRE 816 -1424 816 -1456
WIRE 816 -1424 704 -1424
WIRE 864 -1424 864 -1440
WIRE 864 -1424 816 -1424
WIRE 1088 -1424 864 -1424
WIRE 336 -1408 304 -1408
WIRE 432 -1408 432 -1520
WIRE 432 -1408 416 -1408
WIRE 448 -1408 432 -1408
WIRE 544 -1408 528 -1408
WIRE 576 -1408 544 -1408
WIRE 816 -1408 816 -1424
WIRE 864 -1408 864 -1424
WIRE 544 -1376 544 -1408
WIRE 608 -1376 608 -1392
WIRE 816 -1328 816 -1344
WIRE 864 -1328 864 -1344
WIRE 864 -1328 816 -1328
WIRE 816 -1312 816 -1328
WIRE 544 -1296 544 -1312
WIRE 1040 -1248 1040 -1264
WIRE 1040 -1152 1040 -1168
WIRE 432 -1056 288 -1056
WIRE 288 -1024 288 -1056
WIRE 288 -928 288 -944
WIRE 736 -656 688 -656
WIRE 848 -656 816 -656
WIRE 896 -656 848 -656
WIRE 992 -656 960 -656
WIRE 848 -560 848 -656
WIRE 880 -560 848 -560
WIRE 976 -544 944 -544
WIRE 992 -544 992 -656
WIRE 992 -544 976 -544
WIRE 1056 -544 992 -544
WIRE 624 -528 480 -528
WIRE 736 -528 624 -528
WIRE 848 -528 816 -528
WIRE 880 -528 848 -528
WIRE 480 -496 480 -528
WIRE 848 -464 848 -528
WIRE 480 -368 480 -416
WIRE 688 -368 688 -656
WIRE 688 -368 480 -368
WIRE 848 -368 848 -400
WIRE 848 -368 688 -368
WIRE 1056 -368 1056 -384
WIRE 1056 -368 848 -368
WIRE 688 -320 688 -368
WIRE 688 -192 688 -240
FLAG 288 -928 0
FLAG 1040 -1152 0
FLAG 608 -1472 Vp
FLAG 608 -1376 Vm
FLAG 544 -1296 0
FLAG 704 -1424 fil_tr
FLAG 304 -1408 sum_tr
FLAG 816 -1312 0
FLAG 864 -1760 0
FLAG 912 -1888 +3.3V
FLAG 816 -1552 +3.3V
FLAG 848 -528 in+
FLAG 848 -656 in-
FLAG 624 -528 sig
FLAG 976 -544 out
FLAG 688 -192 0
SYMBOL source-V 288 -1040 R0
WINDOW 123 0 0 Left 2
WINDOW 39 0 0 Left 2
SYMATTR InstName V1
SYMATTR Value SINE(0 100u 10k)
SYMBOL source-V 688 -336 R0
WINDOW 123 0 0 Left 2
WINDOW 39 0 0 Left 2
SYMATTR InstName V2
SYMATTR Value {offset}
SYMBOL source-V 1040 -1264 R0
WINDOW 123 0 0 Left 2
WINDOW 39 0 0 Left 2
SYMATTR InstName V3
SYMATTR Value {0.26*8}
SYMBOL cap 464 -1504 R270
WINDOW 0 32 32 VTop 2
WINDOW 3 0 32 VBottom 2
SYMATTR InstName C1
SYMATTR Value 4.7n
SYMBOL cap 560 -1376 M0
SYMATTR InstName C2
SYMATTR Value 4.7n
SYMATTR SpiceLine Rser=10
SYMBOL res 432 -1392 R270
WINDOW 0 25 56 VTop 2
WINDOW 3 7 56 VBottom 2
SYMATTR InstName R1
SYMATTR Value 1.2k
SYMBOL res 320 -1392 R270
WINDOW 0 25 56 VTop 2
WINDOW 3 7 56 VBottom 2
SYMATTR InstName R2
SYMATTR Value 1.2k
SYMBOL schottky 832 -1456 R180
WINDOW 0 24 72 Left 2
WINDOW 3 24 0 Left 2
SYMATTR InstName D1
SYMATTR Value BAT54
SYMATTR Description Diode
SYMATTR Type diode
SYMBOL schottky 832 -1344 R180
WINDOW 0 24 72 Left 2
WINDOW 3 24 0 Left 2
SYMATTR InstName D2
SYMATTR Value BAT54
SYMATTR Description Diode
SYMATTR Type diode
SYMBOL source-V 864 -1872 R0
WINDOW 123 0 0 Left 2
WINDOW 39 0 0 Left 2
SYMATTR InstName V4
SYMATTR Value 3.3V
SYMBOL cap 848 -1440 M180
WINDOW 0 24 64 Left 2
WINDOW 3 24 8 Left 2
SYMATTR InstName C3
SYMATTR Value 7p
SYMBOL cap 848 -1344 M180
WINDOW 0 24 64 Left 2
WINDOW 3 24 8 Left 2
SYMATTR InstName C4
SYMATTR Value 7p
SYMBOL source-V 480 -512 R0
WINDOW 123 28 56 Left 2
WINDOW 39 0 0 Left 2
SYMATTR Value2 AC 1
SYMATTR InstName V5
SYMATTR Value 1
SYMBOL cap 864 -400 R180
WINDOW 0 24 56 Left 2
WINDOW 3 24 8 Left 2
SYMATTR InstName C5
SYMATTR Value 3.3n
SYMBOL res 832 -544 R90
WINDOW 0 0 56 VBottom 2
WINDOW 3 32 56 VTop 2
SYMATTR InstName R3
SYMATTR Value 100k
SYMBOL res 832 -672 R90
WINDOW 0 0 56 VBottom 2
WINDOW 3 32 56 VTop 2
SYMATTR InstName R4
SYMATTR Value 100k
SYMBOL cap 960 -672 R90
WINDOW 0 0 32 VBottom 2
WINDOW 3 32 32 VTop 2
SYMATTR InstName C6
SYMATTR Value 3.3n
SYMBOL EIT_Semiconductors\\op_3 912 -544 R0
WINDOW 123 -17 69 Invisible 2
SYMATTR InstName U2
SYMATTR Value Vp=5 Vm=0 Ilim=20m
TEXT 1032 -1768 VRight 2 ;xmega128a1 ADC mit Vref=3V
TEXT 1032 -1120 VRight 2 ;xmega128a1 DAC \nzur offset feintrimmung
TEXT 440 -1648 Left 2 ;Butterworth/Sallenkey\nFg=28kHz Unity gain
TEXT 848 -1552 Left 2 ;BAT42
TEXT 432 -1712 Left 2 !.param n=0.1\n;.step param n list 0.1 1
TEXT 184 -336 Left 2 !.ac oct 100 1 {10/(2*pi*100k*3.3n)}
TEXT 592 -136 Left 2 !.param offset = 0V
TEXT 472 -96 Left 2 !.step param offset 0 10 2.5
LINE Normal 992 -1008 992 -1808 2
LINE Normal 624 -384 624 -512 2
LINE Normal 608 -416 624 -384 2
LINE Normal 624 -384 608 -416 2
LINE Normal 640 -416 624 -384 2
LINE Normal 976 -384 976 -512 2
LINE Normal 960 -416 976 -384 2
LINE Normal 976 -384 960 -416 2
LINE Normal 992 -416 976 -384 2
