Version 4
SHEET 1 880 680
WIRE -1152 -1904 -1264 -1904
WIRE -1408 -1888 -1424 -1888
WIRE -1408 -1856 -1408 -1888
WIRE -1264 -1776 -1264 -1904
WIRE -1248 -1776 -1264 -1776
WIRE -1152 -1760 -1152 -1904
WIRE -1152 -1760 -1184 -1760
WIRE -1120 -1760 -1152 -1760
WIRE -1408 -1744 -1408 -1776
WIRE -1328 -1744 -1408 -1744
WIRE -1248 -1744 -1328 -1744
WIRE -1408 -1648 -1408 -1680
WIRE -1328 -1648 -1328 -1664
WIRE -1408 -1536 -1408 -1552
WIRE -1232 -1536 -1232 -1552
WIRE -1408 -1424 -1408 -1456
WIRE -1344 -1424 -1408 -1424
WIRE -1232 -1424 -1232 -1456
WIRE -1200 -1424 -1232 -1424
WIRE -1168 -1424 -1200 -1424
WIRE -1408 -1408 -1408 -1424
WIRE -1344 -1408 -1344 -1424
WIRE -1232 -1408 -1232 -1424
WIRE -1168 -1408 -1168 -1424
WIRE -1408 -1328 -1408 -1344
WIRE -1344 -1328 -1344 -1344
WIRE -1232 -1328 -1232 -1344
WIRE -1168 -1328 -1168 -1344
WIRE -592 -1184 -912 -1184
WIRE 16 -1184 -512 -1184
WIRE -1216 -1104 -1216 -1152
WIRE -624 -1072 -704 -1072
WIRE -432 -1072 -560 -1072
WIRE -1392 -1008 -1424 -1008
WIRE -1312 -1008 -1392 -1008
WIRE -1216 -1008 -1216 -1024
WIRE -1216 -1008 -1312 -1008
WIRE -1152 -1008 -1216 -1008
WIRE -304 -1008 -320 -1008
WIRE -208 -1008 -224 -1008
WIRE -176 -1008 -208 -1008
WIRE 16 -1008 16 -1184
WIRE 16 -1008 -112 -1008
WIRE -1024 -976 -1056 -976
WIRE -912 -976 -912 -1184
WIRE -912 -976 -944 -976
WIRE -704 -976 -704 -1072
WIRE -704 -976 -912 -976
WIRE -640 -976 -704 -976
WIRE -432 -976 -432 -1072
WIRE -432 -976 -560 -976
WIRE -1424 -944 -1424 -1008
WIRE -1312 -944 -1312 -1008
WIRE -1216 -944 -1216 -1008
WIRE -208 -928 -208 -1008
WIRE -112 -928 -208 -928
WIRE -784 -912 -816 -912
WIRE -768 -912 -784 -912
WIRE -656 -912 -704 -912
WIRE -528 -912 -576 -912
WIRE -432 -912 -432 -976
WIRE -432 -912 -464 -912
WIRE 0 -912 -48 -912
WIRE 16 -912 16 -1008
WIRE 16 -912 0 -912
WIRE 400 -912 336 -912
WIRE 416 -912 400 -912
WIRE 544 -912 480 -912
WIRE 560 -912 544 -912
WIRE -112 -896 -208 -896
WIRE 336 -880 336 -912
WIRE 480 -880 480 -912
WIRE -576 -864 -608 -864
WIRE -560 -864 -576 -864
WIRE -912 -848 -912 -976
WIRE -896 -848 -912 -848
WIRE -864 -848 -896 -848
WIRE -1424 -832 -1424 -864
WIRE -1312 -832 -1312 -880
WIRE -1312 -832 -1424 -832
WIRE -1216 -832 -1216 -880
WIRE -1216 -832 -1312 -832
WIRE -608 -832 -608 -864
WIRE -1424 -816 -1424 -832
WIRE -768 -816 -816 -816
WIRE -704 -816 -704 -912
WIRE -704 -816 -768 -816
WIRE -624 -816 -704 -816
WIRE -432 -800 -432 -912
WIRE -432 -800 -560 -800
WIRE -368 -800 -432 -800
WIRE -352 -800 -368 -800
WIRE -304 -800 -352 -800
WIRE -208 -800 -208 -896
WIRE -208 -800 -224 -800
WIRE -176 -800 -208 -800
WIRE -96 -800 -112 -800
WIRE -816 -784 -816 -816
WIRE -624 -784 -672 -784
WIRE -608 -752 -608 -768
WIRE -672 -736 -672 -784
WIRE 528 -720 464 -720
WIRE 544 -720 528 -720
WIRE 352 -704 336 -704
WIRE -816 -688 -816 -704
WIRE -368 -688 -368 -800
WIRE 64 -688 -368 -688
WIRE 464 -688 464 -720
WIRE 336 -656 336 -704
WIRE 288 -592 256 -592
WIRE -608 -544 -928 -544
WIRE -384 -544 -528 -544
WIRE 0 -544 -320 -544
WIRE 256 -528 256 -592
WIRE 336 -528 336 -560
WIRE -640 -432 -720 -432
WIRE -448 -432 -576 -432
WIRE -1232 -416 -1232 -464
WIRE 336 -400 336 -448
WIRE -320 -368 -336 -368
WIRE -224 -368 -240 -368
WIRE -192 -368 -224 -368
WIRE 0 -368 0 -544
WIRE 0 -368 -128 -368
WIRE -1040 -336 -1056 -336
WIRE -928 -336 -928 -544
WIRE -928 -336 -960 -336
WIRE -720 -336 -720 -432
WIRE -720 -336 -928 -336
WIRE -656 -336 -720 -336
WIRE -448 -336 -448 -432
WIRE -448 -336 -576 -336
WIRE -1408 -320 -1440 -320
WIRE -1328 -320 -1408 -320
WIRE -1232 -320 -1232 -336
WIRE -1232 -320 -1328 -320
WIRE -1168 -320 -1232 -320
WIRE -224 -288 -224 -368
WIRE -128 -288 -224 -288
WIRE -800 -272 -832 -272
WIRE -784 -272 -800 -272
WIRE -672 -272 -720 -272
WIRE -544 -272 -592 -272
WIRE -448 -272 -448 -336
WIRE -448 -272 -480 -272
WIRE -16 -272 -64 -272
WIRE 0 -272 0 -368
WIRE 0 -272 -16 -272
WIRE -1440 -256 -1440 -320
WIRE -1328 -256 -1328 -320
WIRE -1232 -256 -1232 -320
WIRE -128 -256 -224 -256
WIRE -592 -224 -624 -224
WIRE -576 -224 -592 -224
WIRE -928 -208 -928 -336
WIRE -912 -208 -928 -208
WIRE -880 -208 -912 -208
WIRE -624 -192 -624 -224
WIRE -784 -176 -832 -176
WIRE -720 -176 -720 -272
WIRE -720 -176 -784 -176
WIRE -640 -176 -720 -176
WIRE -448 -160 -448 -272
WIRE -448 -160 -576 -160
WIRE -384 -160 -448 -160
WIRE -368 -160 -384 -160
WIRE -320 -160 -368 -160
WIRE -224 -160 -224 -256
WIRE -224 -160 -240 -160
WIRE -192 -160 -224 -160
WIRE -112 -160 -128 -160
WIRE -1440 -144 -1440 -176
WIRE -1328 -144 -1328 -192
WIRE -1328 -144 -1440 -144
WIRE -1232 -144 -1232 -192
WIRE -1232 -144 -1328 -144
WIRE -832 -144 -832 -176
WIRE -640 -144 -688 -144
WIRE -1440 -128 -1440 -144
WIRE -624 -112 -624 -128
WIRE -688 -96 -688 -144
WIRE -832 -48 -832 -64
WIRE -384 -48 -384 -160
WIRE 48 -48 -384 -48
FLAG 464 -608 0
FLAG -1408 -1328 0
FLAG -1344 -1328 0
FLAG -1408 -1648 0
FLAG -1328 -1648 0
FLAG -1216 -1792 +5V
FLAG -1216 -1728 0
FLAG -1408 -1552 +5V
FLAG 528 -720 +5V
FLAG -1232 -1328 0
FLAG -1168 -1328 0
FLAG -1232 -1552 +5V
FLAG -1200 -1424 Op+5V
FLAG -1344 -1424 JFET_supply
FLAG -1120 -1760 offs
IOPIN -1120 -1760 Out
FLAG -352 -800 U_F2
FLAG 336 -400 0
FLAG 0 -912 out_int2
FLAG -80 -944 +5V
FLAG -608 -752 0
FLAG -576 -864 +5V
FLAG 336 -704 +5V
FLAG -672 -736 offs
IOPIN -672 -736 In
FLAG -96 -800 offs
IOPIN -96 -800 In
FLAG -320 -1008 offs
IOPIN -320 -1008 In
FLAG -768 -816 in-2
FLAG 336 -800 0
FLAG 400 -912 ADVref
FLAG -1424 -1888 ADVref
FLAG -816 -688 0
FLAG -784 -912 +5V
FLAG 480 -800 0
FLAG 544 -912 offs_ideal
FLAG -80 -880 0
FLAG -1408 -320 pin3
FLAG -1440 -128 0
FLAG -1232 -464 0
FLAG -368 -160 U_F3
FLAG -16 -272 out_int3
FLAG -96 -304 +5V
FLAG -624 -112 0
FLAG -592 -224 +5V
FLAG -688 -96 offs
IOPIN -688 -96 In
FLAG -112 -160 offs
IOPIN -112 -160 In
FLAG -336 -368 offs
IOPIN -336 -368 In
FLAG -784 -176 in-3
FLAG -832 -48 0
FLAG -800 -272 +5V
FLAG -96 -240 0
FLAG -896 -848 G2
FLAG -912 -208 G3
FLAG 256 -448 0
FLAG -1056 -336 pin3
FLAG -1056 -976 pin2
FLAG -1392 -1008 pin2
FLAG -1424 -816 0
FLAG -1216 -1152 0
SYMBOL voltage 464 -704 R0
WINDOW 123 0 0 Left 2
WINDOW 39 24 44 Left 2
SYMATTR InstName V1
SYMATTR Value 5
SYMBOL cap -1424 -1408 R0
SYMATTR InstName C5
SYMATTR Value 10nF
SYMBOL cap -1360 -1408 R0
SYMATTR InstName C6
SYMATTR Value 1µ
SYMBOL cap -1424 -1744 R0
SYMATTR InstName C7
SYMATTR Value .01µ
SYMBOL res -1344 -1760 R0
SYMATTR InstName R8
SYMATTR Value 10k
SYMBOL res -1424 -1872 R0
SYMATTR InstName R9
SYMATTR Value 10k
SYMBOL res -1424 -1552 R0
SYMATTR InstName R10
SYMATTR Value 22
SYMBOL AD8656 -1216 -1824 R0
WINDOW 3 -43 146 Left 2
SYMATTR InstName U3
SYMBOL cap -1248 -1408 R0
SYMATTR InstName C9
SYMATTR Value 10nF
SYMBOL cap -1184 -1408 R0
SYMATTR InstName C10
SYMATTR Value 1µ
SYMBOL res -1248 -1552 R0
SYMATTR InstName R12
SYMATTR Value 22
SYMBOL res -544 -992 R90
WINDOW 0 0 56 VBottom 2
WINDOW 3 32 56 VTop 2
SYMATTR InstName R13
SYMATTR Value 2.2meg
SYMBOL njf 288 -656 R0
SYMATTR InstName J2
SYMATTR Value NJFx
SYMBOL res 320 -544 R0
SYMATTR InstName Rs_mit_G1
SYMATTR Value 1n
SYMBOL LTC6252 -592 -800 R0
SYMATTR InstName U4
SYMBOL res -320 -1024 M90
WINDOW 0 0 56 VBottom 2
WINDOW 3 32 56 VTop 2
SYMATTR InstName R14
SYMATTR Value 100k
SYMBOL res -208 -784 M270
WINDOW 0 32 56 VTop 2
WINDOW 3 0 56 VBottom 2
SYMATTR InstName R15
SYMATTR Value 100k
SYMBOL cap -112 -784 M270
WINDOW 0 32 32 VTop 2
WINDOW 3 0 32 VBottom 2
SYMATTR InstName C11
SYMATTR Value 3.3nF
SYMBOL cap -176 -1024 M90
WINDOW 0 0 32 VBottom 2
WINDOW 3 32 32 VTop 2
SYMATTR InstName C12
SYMATTR Value 3.3nF
SYMATTR SpiceLine Rser=5
SYMBOL res -496 -1200 R90
WINDOW 0 0 56 VBottom 2
WINDOW 3 32 56 VTop 2
SYMATTR InstName R16
SYMATTR Value 1meg
SYMBOL AD8656 -80 -976 R0
WINDOW 3 46 97 Left 2
SYMATTR InstName U5
SYMBOL voltage 336 -896 R0
WINDOW 123 0 0 Left 2
WINDOW 39 24 44 Left 2
SYMATTR InstName V2
SYMATTR Value 3
SYMBOL njf -864 -912 R0
WINDOW 3 -36 91 Left 2
SYMATTR InstName J4
SYMATTR Value JBF862
SYMBOL res -832 -800 R0
SYMATTR InstName Rs2
SYMATTR Value 1k
SYMBOL voltage 480 -896 R0
WINDOW 123 0 0 Left 2
WINDOW 39 24 44 Left 2
SYMATTR InstName V3
SYMATTR Value 1.5
SYMBOL cap -560 -1088 R90
WINDOW 0 0 32 VBottom 2
WINDOW 3 32 32 VTop 2
SYMATTR InstName C3
SYMATTR Value 47p
SYMBOL diode -1216 -192 R180
WINDOW 0 24 72 Left 2
WINDOW 3 24 0 Left 2
SYMATTR InstName D1
SYMBOL current -1440 -256 R0
WINDOW 3 -58 161 Left 2
WINDOW 123 -69 -7 Left 2
WINDOW 39 0 0 Left 2
SYMATTR Value SINE(400e-9 100e-9 10e3)
SYMATTR Value2 AC 1
SYMATTR InstName I1
SYMBOL cap -1344 -256 R0
SYMATTR InstName C8
SYMATTR Value 70p
SYMBOL current -1232 -416 R0
WINDOW 3 -101 45 Left 2
WINDOW 123 24 28 Left 2
WINDOW 39 0 0 Left 2
SYMATTR Value 300n
SYMATTR Value2 AC 1
SYMATTR InstName I2
SYMBOL res -560 -352 R90
WINDOW 0 0 56 VBottom 2
WINDOW 3 32 56 VTop 2
SYMATTR InstName R1
SYMATTR Value 2.2meg
SYMBOL LTC6252 -608 -160 R0
SYMATTR InstName U1
SYMBOL res -336 -384 M90
WINDOW 0 0 56 VBottom 2
WINDOW 3 32 56 VTop 2
SYMATTR InstName R2
SYMATTR Value 100k
SYMBOL res -224 -144 M270
WINDOW 0 32 56 VTop 2
WINDOW 3 0 56 VBottom 2
SYMATTR InstName R3
SYMATTR Value 100k
SYMBOL cap -128 -144 M270
WINDOW 0 32 32 VTop 2
WINDOW 3 0 32 VBottom 2
SYMATTR InstName C1
SYMATTR Value 3.3nF
SYMBOL cap -192 -384 M90
WINDOW 0 0 32 VBottom 2
WINDOW 3 32 32 VTop 2
SYMATTR InstName C2
SYMATTR Value 3.3nF
SYMATTR SpiceLine Rser=5
SYMBOL res -512 -560 R90
WINDOW 0 0 56 VBottom 2
WINDOW 3 32 56 VTop 2
SYMATTR InstName R4
SYMATTR Value 1meg
SYMBOL AD8656 -96 -336 R0
WINDOW 3 46 97 Left 2
SYMATTR InstName U2
SYMBOL njf -880 -272 R0
WINDOW 3 -34 91 Left 2
SYMATTR InstName J1
SYMATTR Value JBF862
SYMBOL res -848 -160 R0
SYMATTR InstName Rs3
SYMATTR Value 1k
SYMBOL cap -576 -448 R90
WINDOW 0 0 32 VBottom 2
WINDOW 3 32 32 VTop 2
SYMATTR InstName C4
SYMATTR Value 47p
SYMBOL Misc\\jumper -352 -624 R0
SYMATTR InstName X1
SYMBOL res -944 -352 R90
WINDOW 0 0 56 VBottom 2
WINDOW 3 32 56 VTop 2
SYMATTR InstName in3
SYMATTR Value {Rin}
SYMBOL res -928 -992 R90
WINDOW 0 0 56 VBottom 2
WINDOW 3 32 56 VTop 2
SYMATTR InstName in2
SYMATTR Value {Rin}
SYMBOL voltage 256 -544 R0
WINDOW 123 0 0 Left 2
WINDOW 39 24 44 Left 2
SYMATTR InstName V4
SYMATTR Value PULSE(0.3 -2 50u 2m)
SYMBOL diode -1200 -880 R180
WINDOW 0 24 72 Left 2
WINDOW 3 24 0 Left 2
SYMATTR InstName D2
SYMBOL current -1424 -944 R0
WINDOW 3 -58 161 Left 2
WINDOW 123 -69 -7 Left 2
WINDOW 39 0 0 Left 2
SYMATTR Value SINE(400e-9 100e-9 10e3)
SYMATTR Value2 AC 1
SYMATTR InstName I3
SYMBOL cap -1328 -944 R0
SYMATTR InstName C13
SYMATTR Value 70p
SYMBOL current -1216 -1104 R0
WINDOW 3 -101 45 Left 2
WINDOW 123 24 28 Left 2
WINDOW 39 0 0 Left 2
SYMATTR Value 300n
SYMATTR Value2 AC 1
SYMATTR InstName I4
TEXT -976 -640 Left 2 !.tran 0 2m 50u uic
TEXT -1032 -1776 Left 2 !*   BF862 SPICE MODEL MARCH 2007 NXP SEMICONDUCTORS\n*   ENVELOPE    SOT23\n*   JBF862: 1, Drain,  2,Gate,  3,Source\n.model JBF862 NJF(Beta=47.800E-3 Betatce=-.5 Rd=.8 Rs=7.5000 Lambda=37.300E-3 Vto=-.57093\n+ Vtotc=-2.0000E-3 Is=424.60E-12 Isr=2.995p N=1 Nr=2 Xti=3 Alpha=-1.0000E-3\n+ Vk=59.97 Cgd=7.4002E-12 M=.6015 Pb=.5 Fc=.5 Cgs=8.2890E-12 Kf=87.5E-18\n+ Af=1)
TEXT -1008 -1512 Left 2 ;--- Transfer Function ---\nTransfer_function:               0.936706        transfer\nvgate#Input_impedance:           4.64851e+011    impedance\noutput_impedance_at_V(src):      60.8181         impedance\n \n       --- Transfer Function ---\nTransfer_function:               5.56751e+006    transfer\nigate#Input_impedance:           3.59532e+007    impedance\noutput_impedance_at_V(src):      28.3726         impedance
TEXT -328 -1512 Left 2 ;K=Idss/Vp^2\nr0=1/(lambda*Id0)\nId=k*(Ugs-Vp)^2 \n(aktiver bereich, Vgs>0 && Uds>Ugs-Vp)\n \nlabda 37m --> r0 berechnen von jfet \n-> r0=last auf feedback- knoten\nr0=1/(lambda*Id0)\nr0=1/(0.037*Id0)
TEXT -1504 -472 Left 2 ;PIN Dioden- Modell
TEXT -976 -608 Left 2 !.param Rin=1u
TEXT -1488 -1160 Left 2 ;PIN Dioden- Modell
TEXT 72 -328 Left 2 !.model NJFx njf(beta=39.1m Vto=-0.571)
RECTANGLE Normal -1136 -64 -1520 -496 2
RECTANGLE Normal -1120 -752 -1504 -1184 2
