Version 4
SHEET 1 1316 680
WIRE -1104 -1872 -1152 -1872
WIRE -1040 -1872 -1104 -1872
WIRE -784 -1840 -848 -1840
WIRE -768 -1840 -784 -1840
WIRE -608 -1840 -672 -1840
WIRE -592 -1840 -608 -1840
WIRE -1104 -1824 -1120 -1824
WIRE -1392 -1808 -1408 -1808
WIRE -1296 -1808 -1312 -1808
WIRE -1104 -1808 -1104 -1824
WIRE -848 -1808 -848 -1840
WIRE -672 -1808 -672 -1840
WIRE -1152 -1792 -1152 -1872
WIRE -1136 -1792 -1152 -1792
WIRE -1040 -1776 -1040 -1872
WIRE -1040 -1776 -1072 -1776
WIRE -1008 -1776 -1040 -1776
WIRE -1296 -1760 -1296 -1808
WIRE -1216 -1760 -1296 -1760
WIRE -1136 -1760 -1216 -1760
WIRE -1296 -1744 -1296 -1760
WIRE -1216 -1744 -1216 -1760
WIRE -1408 -1728 -1408 -1808
WIRE -1296 -1648 -1296 -1680
WIRE -1216 -1648 -1216 -1664
WIRE -1408 -1536 -1408 -1552
WIRE -1232 -1536 -1232 -1552
WIRE -1056 -1536 -1056 -1552
WIRE -896 -1536 -896 -1552
WIRE -32 -1504 -32 -1520
WIRE -1408 -1424 -1408 -1456
WIRE -1344 -1424 -1408 -1424
WIRE -1232 -1424 -1232 -1456
WIRE -1168 -1424 -1232 -1424
WIRE -1056 -1424 -1056 -1456
WIRE -992 -1424 -1056 -1424
WIRE -896 -1424 -896 -1456
WIRE -832 -1424 -896 -1424
WIRE -1408 -1408 -1408 -1424
WIRE -1344 -1408 -1344 -1424
WIRE -1232 -1408 -1232 -1424
WIRE -1168 -1408 -1168 -1424
WIRE -1056 -1408 -1056 -1424
WIRE -992 -1408 -992 -1424
WIRE -896 -1408 -896 -1424
WIRE -832 -1408 -832 -1424
WIRE -32 -1392 -32 -1424
WIRE 32 -1392 -32 -1392
WIRE -32 -1376 -32 -1392
WIRE 32 -1376 32 -1392
WIRE -1408 -1328 -1408 -1344
WIRE -1344 -1328 -1344 -1344
WIRE -1232 -1328 -1232 -1344
WIRE -1168 -1328 -1168 -1344
WIRE -1056 -1328 -1056 -1344
WIRE -992 -1328 -992 -1344
WIRE -896 -1328 -896 -1344
WIRE -832 -1328 -832 -1344
WIRE -32 -1296 -32 -1312
WIRE 32 -1296 32 -1312
WIRE -592 -1184 -912 -1184
WIRE 16 -1184 -512 -1184
WIRE -1184 -1120 -1184 -1136
WIRE -192 -1104 -208 -1104
WIRE 16 -1104 16 -1184
WIRE 16 -1104 -112 -1104
WIRE -624 -1072 -704 -1072
WIRE -432 -1072 -560 -1072
WIRE -304 -1008 -320 -1008
WIRE -208 -1008 -208 -1104
WIRE -208 -1008 -224 -1008
WIRE -176 -1008 -208 -1008
WIRE -80 -1008 -112 -1008
WIRE 16 -1008 16 -1104
WIRE 16 -1008 -80 -1008
WIRE -1360 -976 -1392 -976
WIRE -1280 -976 -1360 -976
WIRE -1184 -976 -1184 -1040
WIRE -1184 -976 -1280 -976
WIRE -1120 -976 -1184 -976
WIRE -1008 -976 -1024 -976
WIRE -912 -976 -912 -1184
WIRE -912 -976 -928 -976
WIRE -704 -976 -704 -1072
WIRE -704 -976 -912 -976
WIRE -640 -976 -704 -976
WIRE -432 -976 -432 -1072
WIRE -432 -976 -560 -976
WIRE -64 -960 -80 -960
WIRE -80 -944 -80 -960
WIRE -208 -928 -208 -1008
WIRE -112 -928 -208 -928
WIRE -1392 -912 -1392 -976
WIRE -1280 -912 -1280 -976
WIRE -1184 -912 -1184 -976
WIRE -800 -912 -816 -912
WIRE -784 -912 -800 -912
WIRE -656 -912 -704 -912
WIRE -528 -912 -576 -912
WIRE -432 -912 -432 -976
WIRE -432 -912 -464 -912
WIRE 16 -912 16 -1008
WIRE 16 -912 -48 -912
WIRE -112 -896 -208 -896
WIRE -80 -864 -80 -880
WIRE -912 -848 -912 -976
WIRE -896 -848 -912 -848
WIRE -864 -848 -896 -848
WIRE -592 -848 -608 -848
WIRE -608 -832 -608 -848
WIRE -768 -816 -816 -816
WIRE -704 -816 -704 -912
WIRE -704 -816 -768 -816
WIRE -624 -816 -704 -816
WIRE -1392 -800 -1392 -832
WIRE -1280 -800 -1280 -848
WIRE -1280 -800 -1392 -800
WIRE -1184 -800 -1184 -848
WIRE -1184 -800 -1280 -800
WIRE -432 -800 -432 -912
WIRE -432 -800 -560 -800
WIRE -368 -800 -432 -800
WIRE -304 -800 -368 -800
WIRE -208 -800 -208 -896
WIRE -208 -800 -224 -800
WIRE -176 -800 -208 -800
WIRE -96 -800 -112 -800
WIRE -1392 -784 -1392 -800
WIRE -816 -784 -816 -816
WIRE -624 -784 -672 -784
WIRE -608 -752 -608 -768
WIRE -576 -752 -576 -768
WIRE -672 -736 -672 -784
WIRE -816 -688 -816 -704
WIRE -368 -688 -368 -800
WIRE -80 -688 -80 -720
WIRE -80 -688 -368 -688
WIRE 16 -688 -80 -688
WIRE 64 -688 16 -688
WIRE -176 -400 -224 -400
WIRE -64 -400 -112 -400
WIRE -224 -288 -224 -400
WIRE -176 -288 -224 -288
WIRE -64 -288 -64 -400
WIRE -64 -288 -96 -288
WIRE -1184 -176 -1312 -176
WIRE -992 -176 -1104 -176
WIRE -880 -176 -992 -176
WIRE -752 -176 -880 -176
WIRE -640 -176 -752 -176
WIRE -528 -176 -640 -176
WIRE -384 -176 -528 -176
WIRE -224 -176 -224 -288
WIRE -224 -176 -384 -176
WIRE -176 -176 -224 -176
WIRE -64 -160 -64 -288
WIRE -64 -160 -112 -160
WIRE -176 -144 -224 -144
WIRE -528 -112 -528 -176
WIRE -224 -112 -224 -144
WIRE -1312 -96 -1312 -176
WIRE -1104 -96 -1104 -176
WIRE -992 -96 -992 -176
WIRE -880 -96 -880 -176
WIRE -752 -96 -752 -176
WIRE -640 -96 -640 -176
WIRE -1184 -80 -1184 -176
WIRE -1104 16 -1104 -16
WIRE -992 16 -992 -16
WIRE -880 16 -880 -16
WIRE -752 16 -752 -32
WIRE -640 16 -640 -32
WIRE -528 16 -528 -32
WIRE -1312 80 -1312 -16
WIRE -1184 80 -1184 -32
WIRE -1184 80 -1312 80
WIRE -1104 80 -1104 48
WIRE -992 80 -992 48
WIRE -992 80 -1104 80
WIRE -880 80 -880 48
WIRE -880 80 -992 80
WIRE -752 80 -752 48
WIRE -752 80 -880 80
WIRE -640 80 -640 48
WIRE -640 80 -752 80
WIRE -528 80 -528 48
WIRE -528 80 -640 80
WIRE -480 80 -528 80
WIRE -384 80 -400 80
WIRE -272 80 -384 80
WIRE -1312 96 -1312 80
WIRE -272 160 -272 80
WIRE -1312 208 -1312 176
FLAG -672 -1728 0
FLAG -1408 -1328 0
FLAG -1344 -1328 0
FLAG -1296 -1648 0
FLAG -1216 -1648 0
FLAG -1104 -1744 0
FLAG -1408 -1552 +5V
FLAG -608 -1840 +5V
FLAG -1232 -1328 0
FLAG -1168 -1328 0
FLAG -1232 -1552 +5V
FLAG -1168 -1424 Op+5V
FLAG -1008 -1776 offs
IOPIN -1008 -1776 Out
FLAG 16 -912 out_int2
FLAG -608 -752 0
FLAG -672 -736 offs
IOPIN -672 -736 In
FLAG -96 -800 offs
IOPIN -96 -800 In
FLAG -320 -1008 offs
IOPIN -320 -1008 In
FLAG -768 -816 in-2
FLAG -1408 -1648 0
FLAG -816 -688 0
FLAG -800 -912 JFET_VCC2
FLAG -848 -1728 0
FLAG -784 -1840 offs_ide
FLAG -80 -864 0
FLAG -896 -848 G2
FLAG -1024 -976 pin2
FLAG -1360 -976 pin2
FLAG -1392 -784 0
FLAG -1184 -1136 0
FLAG 16 -688 U_F2
FLAG -1344 -1424 JFET_VCC
FLAG -592 -848 Op+5V
FLAG -576 -752 Op+5V
FLAG -1056 -1328 0
FLAG -992 -1328 0
FLAG -1056 -1552 +5V
FLAG -992 -1424 Op2+5V
FLAG -64 -960 Op2+5V
FLAG -896 -1328 0
FLAG -832 -1328 0
FLAG -896 -1552 +5V
FLAG -832 -1424 Op3+5V
FLAG -1104 -1824 Op3+5V
FLAG -384 80 A
FLAG -384 -176 C
FLAG -1312 208 0
FLAG -272 160 0
FLAG -224 -112 0
FLAG -64 -400 outOp
FLAG -32 -1296 0
FLAG 32 -1296 0
FLAG -32 -1520 +5V
FLAG 32 -1392 JFET_VCC2
SYMBOL voltage -672 -1824 R0
SYMATTR InstName V1
SYMATTR Value 5
SYMBOL cap -1424 -1408 R0
SYMATTR InstName C5
SYMATTR Value 10nF
SYMBOL cap -1360 -1408 R0
SYMATTR InstName C6
SYMATTR Value 1µ
SYMBOL cap -1312 -1744 R0
SYMATTR InstName C7
SYMATTR Value 1µ
SYMBOL res -1232 -1760 R0
SYMATTR InstName R8
SYMATTR Value 10k
SYMBOL res -1408 -1792 R270
WINDOW 0 32 56 VTop 2
WINDOW 3 0 56 VBottom 2
SYMATTR InstName R9
SYMATTR Value 10k
SYMBOL res -1424 -1552 R0
SYMATTR InstName R10
SYMATTR Value 22
SYMBOL AD8656 -1104 -1840 R0
WINDOW 3 -32 -63 Left 2
SYMATTR InstName U3
SYMBOL cap -1248 -1408 R0
SYMATTR InstName C9
SYMATTR Value 10nF
SYMBOL cap -1184 -1408 R0
SYMATTR InstName C10
SYMATTR Value 1µ
SYMBOL res -1248 -1552 R0
SYMATTR InstName R12
SYMATTR Value 22
SYMBOL res -544 -992 R90
WINDOW 0 0 56 VBottom 2
WINDOW 3 -28 -16 VTop 2
SYMATTR InstName R13
SYMATTR Value 2.2meg
SYMBOL LTC6252 -592 -800 R0
SYMATTR InstName U4
SYMBOL res -320 -1024 M90
WINDOW 0 0 56 VBottom 2
WINDOW 3 32 56 VTop 2
SYMATTR InstName R14
SYMATTR Value 100k
SYMBOL res -208 -784 M270
WINDOW 0 32 56 VTop 2
WINDOW 3 0 56 VBottom 2
SYMATTR InstName R15
SYMATTR Value 100k
SYMBOL cap -112 -784 M270
WINDOW 0 32 32 VTop 2
WINDOW 3 0 32 VBottom 2
SYMATTR InstName C11
SYMATTR Value 3.3nF
SYMBOL cap -176 -1024 M90
WINDOW 0 0 32 VBottom 2
WINDOW 3 32 32 VTop 2
SYMATTR InstName C12
SYMATTR Value 3.3nF
SYMATTR SpiceLine Rser=5
SYMBOL res -496 -1200 R90
WINDOW 0 0 56 VBottom 2
WINDOW 3 32 56 VTop 2
SYMATTR InstName R16
SYMATTR Value 1meg
SYMBOL voltage -1408 -1744 R0
WINDOW 123 0 0 Left 2
WINDOW 39 24 44 Left 2
SYMATTR InstName V2
SYMATTR Value 3
SYMBOL res -832 -800 R0
SYMATTR InstName Rs2
SYMATTR Value 1k
SYMBOL voltage -848 -1824 R0
WINDOW 123 0 0 Left 2
WINDOW 39 24 44 Left 2
SYMATTR InstName V3
SYMATTR Value 1.5
SYMBOL cap -560 -1088 R90
WINDOW 0 0 32 VBottom 2
WINDOW 3 32 32 VTop 2
SYMATTR InstName C3
SYMATTR Value 47p
SYMBOL res -912 -992 R90
WINDOW 0 0 56 VBottom 2
WINDOW 3 32 56 VTop 2
SYMATTR InstName in2
SYMATTR Value 1m
SYMBOL diode -1168 -848 R180
WINDOW 0 24 72 Left 2
WINDOW 3 24 0 Left 2
SYMATTR InstName D2
SYMBOL current -1392 -912 R0
WINDOW 3 -58 161 Left 2
WINDOW 123 -69 -7 Left 2
WINDOW 39 0 0 Left 2
SYMATTR Value SINE(400e-9 100e-9 {fsig})
SYMATTR Value2 AC 1
SYMATTR InstName I3
SYMBOL cap -1296 -912 R0
SYMATTR InstName C13
SYMATTR Value 70p
SYMBOL current -1184 -1120 R0
WINDOW 3 -280 94 Left 2
WINDOW 123 41 35 Left 2
WINDOW 39 0 0 Left 2
WINDOW 0 44 5 Left 2
SYMATTR Value PULSE(0 {pin_ext_bias} 10u)
SYMATTR InstName I4
SYMBOL res -560 -928 R90
WINDOW 0 0 56 VBottom 2
WINDOW 3 32 56 VTop 2
SYMATTR InstName R5
SYMATTR Value 33
SYMBOL cap -464 -928 R90
WINDOW 0 0 32 VBottom 2
WINDOW 3 32 32 VTop 2
SYMATTR InstName C14
SYMATTR Value 47p
SYMBOL cap -1072 -1408 R0
SYMATTR InstName C2
SYMATTR Value 10nF
SYMBOL cap -1008 -1408 R0
SYMATTR InstName C4
SYMATTR Value 1µ
SYMBOL res -1072 -1552 R0
SYMATTR InstName R1
SYMATTR Value 22
SYMBOL cap -912 -1408 R0
SYMATTR InstName C1
SYMATTR Value 10nF
SYMBOL cap -848 -1408 R0
SYMATTR InstName C8
SYMATTR Value 1µ
SYMBOL res -912 -1552 R0
SYMATTR InstName R2
SYMATTR Value 22
SYMBOL res -96 -1120 R90
WINDOW 0 0 56 VBottom 2
WINDOW 3 32 56 VTop 2
SYMATTR InstName R3
SYMATTR Value 100
SYMBOL source-I -992 -16 M180
SYMATTR InstName I2
SYMATTR Value {Iphc}
SYMBOL cap -656 -32 M180
WINDOW 0 24 56 Left 2
WINDOW 3 24 8 Left 2
SYMATTR InstName Cd1
SYMATTR Value {Cd}
SYMBOL res -544 -16 M180
WINDOW 0 36 76 Left 2
WINDOW 3 36 40 Left 2
SYMATTR InstName Rsh1
SYMATTR Value {Rsh}
SYMBOL res -384 96 M270
WINDOW 0 32 56 VTop 2
WINDOW 3 0 56 VBottom 2
SYMATTR InstName Rs1
SYMATTR Value {Rs}
SYMBOL arrow_curr -992 32 R0
SYMATTR InstName Iphc1
SYMBOL arrow_curr -752 32 M180
SYMATTR InstName Id1
SYMBOL arrow_curr -640 32 M180
SYMATTR InstName I_Cd1
SYMBOL arrow_curr -528 32 M180
SYMATTR InstName Ish1
SYMBOL source-I -880 -96 R0
WINDOW 0 27 66 Left 2
WINDOW 3 23 8 Left 2
WINDOW 123 0 0 Left 2
WINDOW 39 0 0 Left 2
SYMATTR InstName I5
SYMATTR Value {Iro}
SYMBOL res -1328 80 R0
SYMATTR InstName R6
SYMATTR Value 10t
SYMBOL arrow_curr -880 32 M180
SYMATTR InstName Iro1
SYMBOL arrow_curr -1104 32 R0
SYMATTR InstName IphMod1
SYMBOL diode -768 -32 M180
WINDOW 0 24 64 Left 2
WINDOW 3 24 0 Left 2
SYMATTR InstName D1
SYMATTR Value Dx
SYMBOL res -192 -272 R270
WINDOW 0 32 56 VTop 2
WINDOW 3 0 56 VBottom 2
SYMATTR InstName R7
SYMATTR Value 1Meg
SYMBOL EIT_Semiconductors\\op_3 -144 -160 R0
SYMATTR InstName U5
SYMBOL cap -112 -416 R90
WINDOW 0 0 32 VBottom 2
WINDOW 3 32 32 VTop 2
SYMATTR InstName C15
SYMATTR Value 20p
SYMBOL crtl-V-I_INV -1104 -112 R0
SYMATTR InstName Ira
SYMATTR Value 12.14
SYMBOL source-V -1312 -112 R0
WINDOW 3 -210 187 Left 2
SYMATTR Value SINE(0 3e-8 10k .1n)
SYMATTR InstName Ee
SYMBOL AD8656 -80 -976 R0
SYMATTR InstName U2
SYMBOL cap -48 -1376 R0
SYMATTR InstName C16
SYMATTR Value 10nF
SYMBOL cap 16 -1376 R0
SYMATTR InstName C17
SYMATTR Value 1µ
SYMBOL res -48 -1520 R0
SYMATTR InstName R11
SYMATTR Value 5
SYMBOL EIT_Semiconductors\\njf -864 -912 R0
SYMATTR InstName J1
SYMATTR Value jbf862
TEXT -1280 -656 Left 2 !.tran {15/10k}
TEXT -416 -1712 Left 2 ;K=Idss/Vp^2\nr0=1/(lambda*Id0)\nId=k*(Ugs-Vp)^2 \n(aktiver bereich, Vgs>0 && Uds>Ugs-Vp)\n \nlabda 37m --> r0 berechnen von jfet \nr0: Last am feedback- knoten\nr0=1/(lambda*Id0)
TEXT -976 -608 Left 2 !.param pin_ext_bias = 300n\n.param Rin=1m\n.param fsig = 10k
TEXT -1456 -1128 Left 2 ;PIN Dioden- Modell
TEXT -1424 -584 Left 2 ;.step param pin_ext_bias list 300n 0
TEXT -1128 160 Left 2 ;Measurement Techniques\nVishay Semiconductors\nhttp://www.vishay.com/docs/80085/measurem.pdf
TEXT -1496 -400 Left 2 !.param Iphc = 0nA  ; photostrom (konstante lichtquelle)\n.param Iro = {30nA+330nA}  ; reverse dark current\n.param Ev = 1k ; illumination [lx] (testcondition) or\n.param Ee = 1  ; irradiance [mW/cm2]\n.param Cd = 50pF  ; ersatzkapazität (Cj, parasitäre...)\n.param Rsh = {Vo/Ik}  ; shunt res. (dark resistance)
TEXT -848 -384 Left 2 !* VBPW34\n***************\n.param Ik = 55uA  ; Short circuit current\n.param Vo = 350mV  ; Open circuit Voltage\n.param Rs = {Vo/Ik}  ; series rec.\n.param Vf = 1.2V  ; forward voltage @ If=50mA
TEXT -1496 -448 Left 2 !.model Dx D (Is={50m/exp(Vf/VT)})
TEXT -616 -472 Left 2 !.param boltz = 1.38e-23\n.param Theta = {273+TEMP}\n.param eq = 1.602e-19As\n.param VT={boltz*Theta/eq}
TEXT -1376 -208 Left 2 ;Irradiance [mW/cm2]
TEXT -80 56 Left 2 !.inc Z:\\home\\mainster\\CODES_local\\LTSpice_projects\\steffi\\bundle_tia_v2\\AD8656.asy
TEXT -80 104 Left 2 !.inc Z:\\home\\mainster\\CODES_local\\LTSpice_projects\\steffi\\bundle_tia_v2\\crtl-V-I_INV.asy
TEXT -88 144 Left 2 !.inc Z:\\home\\mainster\\CODES_local\\LTSpice_projects\\steffi\\bundle_tia_v2\\crtl-V-I_INV.asy
TEXT -96 184 Left 2 !.inc Z:\\home\\mainster\\CODES_local\\LTSpice_projects\\steffi\\bundle_tia_v2\\source-V.asy
TEXT -96 208 Left 2 !.inc Z:\\home\\mainster\\CODES_local\\LTSpice_projects\\steffi\\bundle_tia_v2\\source-I.asy
TEXT -104 0 Left 2 !.inc Z:\\home\\mainster\\CODES_local\\LTSpice_projects\\steffi\\bundle_tia_v2\\op_3.asy
TEXT -112 -48 Left 2 !.lib Z:\\home\\mainster\\CODES_local\\LTSpice_projects\\steffi\\bundle_tia_v2\\EIT_sub\\Opamp_parametrierbar.sub
RECTANGLE Normal -1088 -720 -1472 -1152 2
RECTANGLE Normal -304 -504 -1536 128 2
