Version 4
SHEET 1 880 680
WIRE 160 112 48 112
WIRE 416 112 240 112
WIRE 48 144 48 112
WIRE 416 144 416 112
WIRE 240 160 240 112
WIRE 160 176 160 112
WIRE 48 256 48 224
WIRE 160 256 160 224
WIRE 240 256 240 240
WIRE 416 256 416 224
FLAG 48 256 0
FLAG 48 112 stim
FLAG 416 256 0
FLAG 240 256 0
FLAG 160 256 0
SYMBOL BOR_sym\\source-V 48 128 M0
WINDOW 123 34 58 Left 2
WINDOW 39 29 92 Left 2
SYMATTR Value2 AC 1
SYMATTR SpiceLine Rser=50
SYMATTR InstName V1
SYMATTR Value ""
SYMBOL res 400 128 R0
SYMATTR InstName Rout
SYMATTR Value 50
SYMBOL BOR_sym\\crtl-V-V 240 144 R0
WINDOW 3 -65 -77 Left 2
SYMATTR InstName E1
SYMATTR Value laplace=1/(1+s*R1*C6)
TEXT -72 320 Left 2 !.ac dec 100 10k 1e9
TEXT 536 120 Left 2 !.param strip=1\n+ Ri = 10\n+ R1 = 10k\n+ RL = 13k\n+ C6 = 470p\n+ L2 = 47u\n+ f0 = 21k
TEXT 248 328 Left 2 !.net I(Rout) V1
