Version 4
SHEET 1 1004 680
WIRE 176 -176 144 -176
WIRE 208 -176 176 -176
WIRE 336 -176 288 -176
WIRE 400 -176 368 -176
WIRE 480 -176 400 -176
WIRE 560 -176 480 -176
WIRE 288 -144 288 -176
WIRE 208 -128 208 -176
WIRE 400 -128 400 -176
WIRE 480 -128 480 -176
WIRE 560 -128 560 -176
WIRE 32 -96 32 -128
WIRE 208 -32 208 -80
WIRE 288 -32 288 -64
WIRE 400 -32 400 -48
WIRE 480 -32 480 -64
WIRE 560 -32 560 -48
WIRE 192 112 160 112
WIRE 288 112 272 112
WIRE 336 112 288 112
WIRE 448 112 416 112
WIRE 544 112 512 112
WIRE 608 112 544 112
WIRE 736 112 608 112
WIRE 848 112 736 112
WIRE 608 144 608 112
WIRE 160 160 160 112
WIRE 544 160 544 112
WIRE 736 160 736 112
WIRE 608 208 608 192
WIRE 160 288 160 240
WIRE 288 288 160 288
WIRE 544 288 544 240
WIRE 544 288 288 288
WIRE 608 288 608 240
WIRE 608 288 544 288
WIRE 736 288 736 240
WIRE 736 288 608 288
WIRE 864 288 736 288
WIRE 160 304 160 288
FLAG 160 304 0
FLAG 848 112 meter
IOPIN 848 112 Out
FLAG 288 112 A
FLAG 288 288 B
FLAG 608 112 B1
FLAG 864 288 0
FLAG 400 -32 0
FLAG 480 -32 0
FLAG 560 -32 0
FLAG 288 -32 0
FLAG 208 -32 0
FLAG 176 -176 Vn
FLAG 32 48 0
FLAG 32 -128 0
FLAG 160 112 Vn
SYMBOL BOR_sym\\source-V 160 144 M0
WINDOW 123 28 109 Left 2
WINDOW 39 0 0 Left 2
SYMATTR InstName Vn
SYMATTR Value 0
SYMATTR Value2 AC 1
SYMBOL res 176 128 R270
WINDOW 0 25 56 VTop 2
WINDOW 3 7 56 VBottom 2
SYMATTR InstName Zn
SYMATTR Value {Zn}
SYMBOL res 320 128 R270
WINDOW 0 25 56 VTop 2
WINDOW 3 7 56 VBottom 2
SYMATTR InstName R1
SYMATTR Value {R1}
SYMBOL res 560 144 M0
SYMATTR InstName R2
SYMATTR Value {R2}
SYMBOL cap 448 128 R270
WINDOW 0 32 32 VTop 2
WINDOW 3 0 32 VBottom 2
SYMATTR InstName C1
SYMATTR Value {C1}
SYMBOL res 720 144 R0
SYMATTR InstName R4
SYMATTR Value {Rin}
SYMBOL MDB_sym\\jumperSetable 608 176 R90
WINDOW 0 -7 -32 Invisible 2
WINDOW 3 -141 1 VCenter 2
SYMATTR InstName U1
SYMATTR Value cl=0
SYMBOL MDB_sym\\isoR 608 224 R0
WINDOW 3 9 38 Left 2
SYMATTR InstName R3
SYMATTR Value 1
SYMBOL BOR_sym\\FerriteBead 32 16 R0
SYMATTR InstName L2
SYMATTR Value 18n
SYMATTR SpiceLine Ipk=5 Rser=0.00078 Rpar=340 Cpar=250f mfg="Würth Elektronik" pn="7427521_Diff"
SYMBOL res 384 -144 R0
SYMATTR InstName R5
SYMATTR Value 1k
SYMBOL cap 464 -128 R0
SYMATTR InstName C2
SYMATTR Value 100p
SYMBOL ind 544 -144 R0
SYMATTR InstName L1
SYMATTR Value 10n
SYMBOL BOR_sym\\crtl-V-I 288 -160 R0
SYMATTR InstName G1
SYMATTR Value 1
SYMBOL res 16 -112 R0
SYMATTR InstName R6
SYMATTR Value 1
SYMBOL MDB_sym\\arrow_curr 352 -176 R270
WINDOW 0 4 0 VTop 2
SYMATTR InstName iz
TEXT 104 360 Left 2 ;Noise Generator
TEXT 328 360 Left 2 ;Reactance Matching \nNetwork
TEXT 696 360 Left 2 ;Receiver
TEXT -96 144 Left 2 !.param EMV=1;\n+ R1 = 120\n+ R2 = 51\n+ Rin = 50\n+ C1 = 6.8e-9\n+ Zn = 10
TEXT 64 -360 Left 3 ;"Schaltbild 150 Ohm Spannungsmesskopf"
TEXT -98 408 Left 2 !.ac dec 100 10 10meg
RECTANGLE Normal 656 48 320 336 2
RECTANGLE Normal 816 80 688 320 3
