Version 4
SHEET 1 1572 1232
WIRE 768 80 752 80
WIRE 816 80 768 80
WIRE 1024 80 896 80
WIRE 1088 80 1024 80
WIRE 1104 80 1088 80
WIRE 1312 80 1232 80
WIRE 1312 96 1312 80
WIRE 752 112 752 80
WIRE 1120 128 1120 112
WIRE 1216 128 1216 112
WIRE 1024 144 1024 80
WIRE 1312 192 1312 176
WIRE 752 208 752 192
WIRE 1024 304 1024 272
WIRE 1056 304 1056 256
WIRE 1056 304 1024 304
WIRE 1312 304 1312 256
WIRE 768 480 752 480
WIRE 816 480 768 480
WIRE 1024 480 896 480
WIRE 1088 480 1024 480
WIRE 1104 480 1088 480
WIRE 1312 480 1232 480
WIRE 1312 496 1312 480
WIRE 752 512 752 480
WIRE 1120 528 1120 512
WIRE 1216 528 1216 512
WIRE 1024 544 1024 480
WIRE 1312 592 1312 576
WIRE 752 608 752 592
WIRE 1024 704 1024 672
WIRE 1056 704 1056 656
WIRE 1056 704 1024 704
WIRE 1312 704 1312 656
WIRE 1376 832 1344 832
WIRE 1408 832 1376 832
WIRE 1344 864 1344 832
WIRE 1344 960 1344 944
WIRE 1376 1008 1344 1008
WIRE 1408 1008 1376 1008
WIRE 1344 1040 1344 1008
WIRE 1120 1104 1104 1104
WIRE 1216 1104 1200 1104
WIRE 1104 1120 1104 1104
WIRE 1344 1136 1344 1120
FLAG 1104 1104 U
FLAG 1216 1104 Vin
FLAG 1104 1120 0
FLAG 1344 960 0
FLAG 1344 1136 0
FLAG 1376 1008 Cz
FLAG 1376 832 realz
FLAG 1088 80 Z1b
FLAG 1312 80 Z2b
FLAG 1312 304 0
FLAG 1216 128 0
FLAG 1120 128 0
FLAG 1056 160 0
FLAG 752 208 0
FLAG 768 80 u1
FLAG 1088 480 Z1c
FLAG 1312 480 Z2c
FLAG 1312 704 0
FLAG 1216 528 0
FLAG 1120 528 0
FLAG 1056 560 0
FLAG 752 608 0
FLAG 768 480 u2
SYMBOL res 1104 1120 R270
WINDOW 0 25 56 VTop 2
WINDOW 3 7 56 VBottom 2
SYMATTR InstName Rg3
SYMATTR Value 50
SYMBOL source-V 1344 848 R0
WINDOW 123 0 0 Left 2
WINDOW 39 0 0 Left 2
SYMATTR InstName V5
SYMATTR Value {realZ}
SYMBOL source-V 1344 1024 R0
WINDOW 123 0 0 Left 2
WINDOW 39 0 0 Left 2
SYMATTR InstName V6
SYMATTR Value {Cz}
SYMBOL res 1296 80 R0
WINDOW 3 36 63 Left 2
SYMATTR Value {realZ}
SYMATTR InstName R1
SYMBOL cap 1296 192 R0
SYMATTR InstName C1
SYMATTR Value {Cz}
SYMBOL MDB_sym\\tlineFixed 1280 96 R0
WINDOW 0 -115 -39 Bottom 2
WINDOW 3 -115 54 Top 2
SYMATTR InstName UA5
SYMATTR Value Td={Lb1/Cu}
SYMBOL res 800 96 R270
WINDOW 0 25 56 VTop 2
WINDOW 3 7 56 VBottom 2
SYMATTR InstName Rg4
SYMATTR Value 50
SYMBOL MDB_sym\\tlineFixed 1040 320 M90
WINDOW 0 -119 48 VTop 2
WINDOW 3 -70 97 VBottom 2
SYMATTR InstName UA6
SYMATTR Value Td={Lb2_1/Cu}
SYMBOL source-V 752 96 R0
WINDOW 123 28 56 Left 2
WINDOW 39 0 0 Left 2
SYMATTR Value2 AC 1
SYMATTR InstName V7
SYMATTR Value SINE(0 2 {f0})
SYMBOL res 1296 480 R0
WINDOW 3 36 63 Left 2
SYMATTR Value {realZ}
SYMATTR InstName R3
SYMBOL cap 1296 592 R0
SYMATTR InstName C4
SYMATTR Value {Cz}
SYMBOL MDB_sym\\tlineFixed 1280 496 R0
WINDOW 0 -115 -39 Bottom 2
WINDOW 3 -115 54 Top 2
SYMATTR InstName UA7
SYMATTR Value Td={Lb1/Cu}
SYMBOL res 800 496 R270
WINDOW 0 25 56 VTop 2
WINDOW 3 7 56 VBottom 2
SYMATTR InstName Rg5
SYMATTR Value 50
SYMBOL MDB_sym\\tlineFixed 1040 720 M90
WINDOW 0 -119 48 VTop 2
WINDOW 3 -70 97 VBottom 2
SYMATTR InstName UA8
SYMATTR Value Td={Lb2_2/Cu}
SYMBOL source-V 752 496 R0
WINDOW 123 28 56 Left 2
WINDOW 39 0 0 Left 2
SYMATTR Value2 AC 1
SYMATTR InstName V8
SYMATTR Value SINE(0 2 {f0})
TEXT 1056 840 Left 2 !.tran 0 {100/f0} {90/f0}
TEXT 704 848 Left 2 !.param f0 = 433Meg\n.param Cu = 3e8\n.param lambda = Cu/f0\n.param La1 = 0.031*lambda\n.param La2 = 0.23*lambda\n.param Lb1 = 0.111*lambda\n.param Lb2_1 = 0.197*lambda\n.param Lb2_2 = 0.303*lambda\n.param realZ = 80\n.param imagZ = 60\n.param Cz=1/(2*pi*f0*imagZ)
TEXT 704 320 Left 2 ;L2/lambda = 0.197
TEXT 696 736 Left 2 ;L2/lambda = 0.303 FALSCHWERT
TEXT 680 8 Left 3 ;V1
TEXT 680 424 Left 3 ;V2
TEXT 688 -152 Left 2 ;* Bei beiden Varianten sind die tslines UA1 + UA3 korrekt angepasst\n* Bei V1 ist zusätzlich auch die Stichleitung richtig dimensioniert.\n  => Der direkte Vergleich der übertragenen Leistungen bestätigt das\n  => V(Z2b)*I(R4)  verglichen mit  V(Z2c)*I(R2)
RECTANGLE Normal 1472 352 672 -16 2
RECTANGLE Normal 1472 768 672 400 2
