Version 4
SHEET 1 2480 1604
WIRE 784 -240 736 -240
WIRE 896 -240 864 -240
WIRE 896 -224 896 -240
WIRE 736 -192 736 -240
WIRE -208 -144 -240 -144
WIRE -176 -144 -208 -144
WIRE -240 -128 -240 -144
WIRE 896 -128 896 -144
WIRE 896 -128 864 -128
WIRE -320 -96 -352 -96
WIRE -288 -96 -320 -96
WIRE 736 -96 736 -128
WIRE -352 -80 -352 -96
WIRE 896 -48 896 -64
WIRE -240 -32 -240 -48
WIRE -352 16 -352 0
WIRE 832 96 816 96
WIRE 848 96 832 96
WIRE 848 112 848 96
WIRE -208 160 -224 160
WIRE -192 160 -208 160
WIRE -48 160 -80 160
WIRE -16 160 -48 160
WIRE 144 160 64 160
WIRE 192 160 144 160
WIRE 304 160 272 160
WIRE 480 160 304 160
WIRE 608 160 480 160
WIRE 768 160 720 160
WIRE 832 160 768 160
WIRE 944 160 912 160
WIRE 304 176 304 160
WIRE 768 192 768 160
WIRE 944 192 944 160
WIRE 144 208 144 160
WIRE 480 208 480 160
WIRE 608 208 608 160
WIRE 0 224 0 208
WIRE 304 272 304 256
WIRE 304 272 272 272
WIRE 16 288 0 288
WIRE 48 288 48 208
WIRE 48 288 16 288
WIRE 144 304 144 272
WIRE 768 304 768 272
WIRE 944 304 944 272
WIRE 304 352 304 336
WIRE 480 352 480 288
WIRE 608 352 608 288
FLAG -208 160 Ve
FLAG 0 224 0
FLAG 144 304 0
FLAG -48 160 Ve
FLAG 944 304 0
FLAG 304 352 0
FLAG 896 112 0
FLAG 832 96 load
FLAG 16 288 fet
FLAG -240 -32 0
FLAG -352 16 0
FLAG -320 -96 fet
FLAG -208 -144 load
FLAG 768 304 0
FLAG 944 160 out
FLAG 144 160 s
FLAG 304 160 A
FLAG 480 352 0
FLAG 272 272 ca
FLAG 608 352 0
FLAG 736 -96 0
FLAG 896 -48 0
FLAG 736 -240 s__
FLAG 896 -240 A
FLAG 864 -128 ca
SYMBOL source-Vmarker -224 160 R0
SYMATTR Value V={Ve}
SYMATTR InstName U1
SYMBOL diode 160 272 R180
WINDOW 0 24 72 Left 2
WINDOW 3 28 -5 Left 2
SYMATTR InstName D1
SYMATTR Value MUR460
SYMBOL sw -32 160 R270
WINDOW 0 52 17 VRight 2
WINDOW 3 51 78 VRight 2
SYMATTR InstName S1
SYMATTR Value swT
SYMBOL ind 176 176 R270
WINDOW 0 30 56 VTop 2
WINDOW 3 6 56 VBottom 2
SYMATTR InstName L1
SYMATTR Value {L}
SYMATTR SpiceLine Rser=1n
SYMBOL cap 288 272 R0
SYMATTR InstName Ca
SYMATTR Value {CA}
SYMBOL sw 928 160 R90
WINDOW 0 51 59 VRight 2
WINDOW 3 72 41 VRight 2
SYMATTR InstName S2
SYMATTR Value swL
SYMBOL res 928 176 R0
SYMATTR InstName R1
SYMATTR Value {RL}
SYMBOL source-V -240 -144 R0
WINDOW 3 -14 145 Left 2
WINDOW 123 0 0 Left 2
WINDOW 39 0 0 Left 2
SYMATTR Value PULSE(-1.1 1.1 {T_load})
SYMATTR InstName V1
SYMBOL source-V -352 -96 R0
WINDOW 3 -14 145 Left 2
WINDOW 123 0 0 Left 2
WINDOW 39 0 0 Left 2
SYMATTR Value PULSE(-1 1 0 100n 100n {pw/fs} {1/fs})
SYMATTR InstName V2
SYMBOL res 752 176 R0
SYMATTR InstName R2
SYMATTR Value 10k
SYMBOL source-I 480 288 R180
WINDOW 0 29 73 Left 2
WINDOW 3 29 17 Left 2
WINDOW 123 0 0 Left 2
WINDOW 39 0 0 Left 2
SYMATTR InstName I1
SYMATTR Value {Ia}
SYMBOL res 288 160 R0
SYMATTR InstName R3
SYMATTR Value 0.37
SYMBOL source-I 608 288 R180
WINDOW 0 29 73 Left 2
WINDOW 3 -167 -105 Left 2
WINDOW 123 0 0 Left 2
WINDOW 39 0 0 Left 2
SYMATTR InstName I2
SYMATTR Value PULSE(0 0.5 {T_load} 1m)
SYMBOL diode 752 -128 R180
WINDOW 0 24 72 Left 2
WINDOW 3 28 -5 Left 2
SYMATTR InstName D2
SYMATTR Value MUR460
SYMBOL ind 768 -224 R270
WINDOW 0 30 56 VTop 2
WINDOW 3 6 56 VBottom 2
SYMATTR InstName L2
SYMATTR Value {L}
SYMATTR SpiceLine Rser=1n
SYMBOL cap 880 -128 R0
SYMATTR InstName Ca1
SYMATTR Value {CA}
SYMBOL res 880 -240 R0
SYMATTR InstName R4
SYMATTR Value 0.37
TEXT 1752 328 Left 2 ;.model swL SW(Ron=1m Roff=100Meg Vt=0 Vh=-.5 )\n.model swT SW(Ron=1m Roff=100meg Vt=0 Vh=-.5 )\n;.model Dx D ( Is={I0/exp(0.7/26m)} Rs = 0.1 Cjo = 0p)\n;.model nmosx nmos (Kp={2*K} VT0=2.5)
TEXT 104 -112 Left 2 !.param fs = {1/20u}\n.param T_load = 35m\n.param Ve = 12V\n.param Ia = 0.5\n.param Va = 5V\n.param VD0 = 0.78\n.param pw = (Va+VD0)/(Ve+VD0)
TEXT 368 -120 Left 2 !.param CA = 200u\n.param L = 100u\n.param RL = 22
TEXT -328 296 Left 2 !.tran 0 40m {40m-100u}
TEXT 1840 -384 Left 2 ;Spulen-Energie \nEL = 0.5*L1*IL^2\n \nVerlauf des Spulenstromes\n-------------------------------------------\nIL_on = (Ve-Vca)/L1*t+IL0\nIL_off = -(Vca+VD0)/L1*t+IL0-2\n \nWenn eine stationäre Vca gefordert ist,\nmuss mittlerer Kondensatorstrom _IL=0A\ngelten da sich die Vca sonst ändern würde\n \nTastverhältniss p\n---------------------------\np = t1/T  \nTastverhältniss p ergibt sich aus der \non-zeit t1 und der Periodendauer T\n \nd_IL_on = (Ve-Va)/L1*t   für 0<t<t1\nd_IL_off = -(Va+VD0)/L1*(T-t1)    für t1<t<T\n \nWegen Vca=const. muss gelten:\n|d_IL_on| = |d_IL_off|\n \np = t1/T = (Va+VD0)/(Ve+VD0)\nVa = t1/T*(Ve+VD0)
TEXT 1072 -376 Left 2 !; ---------------------------------------------------\n; Tastverhältniss\n; ---------------------------------------------------\n.MEAS TRAN t0 FIND time*1e6 WHEN I(L1)=I(I1) cross=1 TD=1u\n.MEAS TRAN t1 FIND time*1e6 WHEN I(L1)=I(I1) cross=2 TD=1u\n.MEAS TRAN t2 FIND time*1e6 WHEN I(L1)=I(I1) cross=3 TD=1u\n.MEAS TRAN trise FIND time WHEN I(L1)=I(I1) rise=1 TD=1u\n.MEAS TRAN tfall FIND time WHEN I(L1)=I(I1) fall=1 TD=1u\n \n.MEAS TRAN T PARAM round(t2-t0)\n.MEAS TRAN ton PARAM round(t1-t0)\n \n; ---------------------------------------------------\n; Rippelspannung berechnen\n; ---------------------------------------------------\n.MEAS TRAN area_ICa INTEG I(CA)\n+ TRIG I(CA)=0 RISE=1\n+ TARG I(CA)=0 FALL=1\n \n.MEAS TRAN vrip PARAM area_ICa/CA\n \n; ---------------------------------------------------\n; Rippelspannung direkt messen\n; ---------------------------------------------------\n.MEAS TRAN vpp pp V(A) \n+ TRIG time=0\n+ TARG time=300u\n \n; ---------------------------------------------------\n; ESR\n; ---------------------------------------------------\n.MEAS TRAN ILmax MAX I(L1) TD=10u\n.MEAS TRAN ILmin MIN I(L1) TD=10u\n.MEAS TRAN p1 FIND V(a,ca) WHEN I(L1)=ILmin fall=last\n.MEAS TRAN p2 FIND V(a,ca) WHEN I(L1)=ILmax rise=last\n.MEAS TRAN dVa PARAM abs(p2-p1)\n.MEAS TRAN dIL PARAM abs(ILmax-ILmin)\n.MEAS TRAN Rser PARAM dVa/dIL
TEXT 1744 464 Left 2 !.model swL SW(Ron=1m Roff=100Meg Vt=0 Vh=-.5 )\n.model swT SW(Ron=1m Roff=100meg Vt=0 Vh=-.5 )
TEXT 72 408 Left 2 ;.step param Ia 0.1 1 .1
TEXT -184 400 Left 2 !.op
TEXT 1744 536 Left 2 ;.MEAS TRAN dtVa TIME\n+ TRIG MIN I(L1) cross=1\n+ TARG MAX I(L1) cross=1
TEXT 480 456 Left 2 ;.step param L list 100u 150u 250u
TEXT -328 344 Left 2 !.options plotwinsize=0
