Version 4
SHEET 1 1368 972
WIRE -32 -336 -48 -336
WIRE -16 -336 -32 -336
WIRE -48 -304 -48 -336
WIRE -128 -288 -144 -288
WIRE -112 -288 -128 -288
WIRE -144 -256 -144 -288
WIRE -224 -224 -240 -224
WIRE -208 -224 -224 -224
WIRE -48 -208 -48 -224
WIRE -240 -192 -240 -224
WIRE -144 -160 -144 -176
WIRE -240 -96 -240 -112
WIRE -224 48 -256 48
WIRE -80 48 -144 48
WIRE -16 48 -80 48
WIRE 96 48 64 48
WIRE 272 48 96 48
WIRE 320 48 272 48
WIRE 96 64 96 48
WIRE -80 96 -80 48
WIRE 272 96 272 48
WIRE -208 112 -208 96
WIRE 96 160 96 144
WIRE 96 160 64 160
WIRE -192 176 -208 176
WIRE -160 176 -160 96
WIRE -160 176 -192 176
WIRE -80 192 -80 160
WIRE 96 240 96 224
WIRE 272 240 272 176
WIRE -224 256 -240 256
WIRE -208 256 -224 256
WIRE -224 288 -240 288
WIRE -208 288 -224 288
WIRE -144 688 -176 688
WIRE -112 688 -144 688
WIRE -176 704 -176 688
WIRE -256 736 -288 736
WIRE -224 736 -256 736
WIRE -288 752 -288 736
WIRE -176 800 -176 784
WIRE -288 848 -288 832
FLAG -208 112 0
FLAG -80 192 0
FLAG -256 48 Ve
FLAG 96 240 0
FLAG -192 176 fet
FLAG -80 48 s
FLAG 272 48 A
FLAG 272 240 0
FLAG 64 160 ca
FLAG -224 288 Ve
FLAG -176 800 0
FLAG -288 848 0
FLAG -256 736 fet__
FLAG -144 688 load
FLAG -224 256 gnd2
FLAG -240 -96 0
FLAG -224 -224 fetA
FLAG -144 -160 0
FLAG -128 -288 fetB
FLAG -48 -208 0
FLAG -32 -336 fet
SYMBOL diode -64 160 R180
WINDOW 0 24 72 Left 2
WINDOW 3 28 -5 Left 2
SYMATTR InstName D1
SYMATTR Value Dx
SYMBOL sw -240 48 R270
WINDOW 0 54 85 VRight 2
WINDOW 3 30 83 VRight 2
SYMATTR InstName S1
SYMATTR Value swT
SYMBOL ind -32 64 R270
WINDOW 0 30 56 VTop 2
WINDOW 3 6 56 VBottom 2
SYMATTR InstName L1
SYMATTR Value {L}
SYMATTR SpiceLine Rser=1n
SYMBOL cap 80 160 R0
SYMATTR InstName Ca1
SYMATTR Value {CA}
SYMBOL source-I 272 176 R180
WINDOW 0 29 73 Left 2
WINDOW 3 29 17 Left 2
WINDOW 123 0 0 Left 2
WINDOW 39 0 0 Left 2
SYMATTR InstName I1
SYMATTR Value {Ia}
SYMBOL res 80 48 R0
SYMATTR InstName R1
SYMATTR Value 1m
SYMBOL source-Vmarker -240 288 R0
SYMATTR Value V={Ve}
SYMATTR InstName U2
SYMBOL source-V -176 688 R0
WINDOW 3 -14 145 Left 2
WINDOW 123 0 0 Left 2
WINDOW 39 0 0 Left 2
SYMATTR Value PULSE(-1.1 1.1 {T_load})
SYMATTR InstName V1
SYMBOL source-V -288 736 R0
WINDOW 3 -14 145 Left 2
WINDOW 123 0 0 Left 2
WINDOW 39 0 0 Left 2
SYMATTR Value PULSE(-1 1 0 100n 100n {pw/fs} {1/fs})
SYMATTR InstName V2
SYMBOL source-Vmarker -240 256 R0
SYMATTR Value V=1u
SYMATTR InstName U1
SYMBOL bv -240 -208 R0
SYMATTR InstName B1
SYMATTR Value V=if( I(L1)-.5, 1, -1 )
SYMBOL bv -144 -272 R0
SYMATTR InstName B2
SYMATTR Value V=buf( V(a) )
SYMBOL bv -48 -320 R0
SYMATTR InstName B3
SYMATTR Value V=V(fetA) * V(fetB)
TEXT -312 344 Left 2 !.param fs = {1/20u}\n+ T_load = 35m\n+ Ve = 5V\n+ Ia = 0.5\n+ Va = 3.3V\n+ VD0 = 0.7\n+ pw = (Va+VD0)/(Ve+VD0)
TEXT 72 336 Left 2 !.param CA = 200u\n.param L =  20u\n.param RL = 22
TEXT 80 456 Left 2 !.tran 0 40m {0*(40m-100u)} startup
TEXT 88 488 Left 2 !.op
TEXT 80 432 Left 2 !.options plotwinsize=0
TEXT -1064 -72 Left 2 !; ---------------------------------------------------\n; Tastverhältniss\n; ---------------------------------------------------\n.MEAS TRAN t0 FIND time*1e6 WHEN I(L1)=I(I1) cross=1 TD=1u\n.MEAS TRAN t1 FIND time*1e6 WHEN I(L1)=I(I1) cross=2 TD=1u\n.MEAS TRAN t2 FIND time*1e6 WHEN I(L1)=I(I1) cross=3 TD=1u\n.MEAS TRAN trise FIND time WHEN I(L1)=I(I1) rise=1 TD=1u\n.MEAS TRAN tfall FIND time WHEN I(L1)=I(I1) fall=1 TD=1u\n \n.MEAS TRAN T PARAM round(t2-t0)\n.MEAS TRAN ton PARAM round(t1-t0)\n \n; ---------------------------------------------------\n; Rippelspannung berechnen\n; ---------------------------------------------------\n.MEAS TRAN area_ICa INTEG I(CA)\n+ TRIG I(CA)=0 RISE=1\n+ TARG I(CA)=0 FALL=1\n \n.MEAS TRAN vrip PARAM area_ICa/CA\n \n; ---------------------------------------------------\n; Rippelspannung direkt messen\n; ---------------------------------------------------\n.MEAS TRAN vpp pp V(A) \n+ TRIG time=0\n+ TARG time=300u\n \n; ---------------------------------------------------\n; ESR\n; ---------------------------------------------------\n.MEAS TRAN ILmax MAX I(L1) TD=10u\n.MEAS TRAN ILmin MIN I(L1) TD=10u\n.MEAS TRAN p1 FIND V(a,ca) WHEN I(L1)=ILmin fall=last\n.MEAS TRAN p2 FIND V(a,ca) WHEN I(L1)=ILmax rise=last\n.MEAS TRAN dVa PARAM abs(p2-p1)\n.MEAS TRAN dIL PARAM abs(ILmax-ILmin)\n.MEAS TRAN Rser PARAM dVa/dIL
TEXT 480 712 Left 1 ;.model swL SW(Ron=1m Roff=100Meg Vt=0 Vh=-.5 )\n.model swT SW(Ron=1m Roff=100meg Vt=0 Vh=-.5 )\n;.model Dx D ( Is={I0/exp(0.7/26m)} Rs = 0.1 Cjo = 0p)\n;.model nmosx nmos (Kp={2*K} VT0=2.5)
TEXT 480 24 Left 2 ;Spulen-Energie \nEL = 0.5*L1*IL^2\n \nVerlauf des Spulenstromes\n-------------------------------------------\nIL_on = (Ve-Vca)/L1*t+IL0\nIL_off = -(Vca+VD0)/L1*t+IL0-2\n \nWenn eine stationäre Vca gefordert ist,\nmuss mittlerer Kondensatorstrom _IL=0A\ngelten da sich die Vca sonst ändern würde\n \nTastverhältniss p\n---------------------------\np = t1/T  \nTastverhältniss p ergibt sich aus der \non-zeit t1 und der Periodendauer T\n \nd_IL_on = (Ve-Va)/L1*t   für 0<t<t1\nd_IL_off = -(Va+VD0)/L1*(T-t1)    für t1<t<T\n \nWegen Vca=const. muss gelten:\n|d_IL_on| = |d_IL_off|\n \np = t1/T = (Va+VD0)/(Ve+VD0)\nVa = t1/T*(Ve+VD0)
TEXT -304 592 Left 2 !.model swL SW(Ron=1m Roff=100Meg Vt=0 Vh=-.5 )\n.model swT SW(Ron=1m Roff=100meg Vt=0 Vh=-.5 )\n.model Dx D (Vfwd = {VD0} Ron = 1 Roff 100meg)
TEXT 480 816 Left 2 ;.MEAS TRAN dtVa TIME\n+ TRIG MIN I(L1) cross=1\n+ TARG MAX I(L1) cross=1
TEXT -736 -136 Left 2 ;.spice error log command
