Version 4
SHEET 1 880 680
SYMBOL SpecialFunctions\\LTC4417 208 48 R0
SYMATTR InstName U1
