Version 4
SHEET 1 7240 5600
WIRE 176 -624 -496 -624
WIRE 256 -624 176 -624
WIRE 368 -624 352 -624
WIRE 432 -624 368 -624
WIRE 1040 -624 528 -624
WIRE 1120 -624 1040 -624
WIRE 1248 -624 1120 -624
WIRE -496 -608 -496 -624
WIRE 1120 -608 1120 -624
WIRE 1248 -608 1248 -624
WIRE 336 -560 336 -576
WIRE 432 -560 336 -560
WIRE 448 -560 448 -576
WIRE 448 -560 432 -560
WIRE -496 -512 -496 -528
WIRE 1120 -512 1120 -544
WIRE 1248 -512 1248 -528
WIRE 112 -464 -496 -464
WIRE 464 -464 112 -464
WIRE 576 -464 560 -464
WIRE 640 -464 576 -464
WIRE 768 -464 736 -464
WIRE 1040 -464 1040 -624
WIRE 1040 -464 768 -464
WIRE -496 -448 -496 -464
WIRE 768 -432 768 -464
WIRE 544 -400 544 -416
WIRE 640 -400 544 -400
WIRE 656 -400 656 -416
WIRE 656 -400 640 -400
WIRE -496 -352 -496 -368
WIRE 640 -352 640 -400
WIRE 768 -352 768 -368
WIRE 768 -352 640 -352
WIRE 640 -336 640 -352
WIRE 768 -320 768 -352
WIRE 640 -240 640 -256
WIRE 768 -240 768 -256
WIRE 768 -240 640 -240
WIRE 48 -192 -496 -192
WIRE 672 -192 48 -192
WIRE 784 -192 768 -192
WIRE 848 -192 784 -192
WIRE 1040 -192 1040 -464
WIRE 1040 -192 944 -192
WIRE -496 -176 -496 -192
WIRE 752 -128 752 -144
WIRE 848 -128 752 -128
WIRE 864 -128 864 -144
WIRE 864 -128 848 -128
WIRE 368 -96 368 -624
WIRE 432 -96 432 -560
WIRE 576 -96 576 -464
WIRE 640 -96 640 -240
WIRE 784 -96 784 -192
WIRE 848 -96 848 -128
WIRE -496 -80 -496 -96
WIRE 176 -32 176 -624
WIRE 256 -32 176 -32
WIRE 304 -32 256 -32
WIRE 176 -16 176 -32
WIRE 176 80 176 64
WIRE 256 80 176 80
WIRE 304 80 256 80
WIRE 1104 80 1040 -192
WIRE 1104 80 896 80
WIRE 176 96 176 80
WIRE 176 192 176 176
WIRE 256 192 176 192
WIRE 304 192 256 192
WIRE 944 192 896 192
WIRE 992 192 944 192
WIRE 1104 192 1072 192
WIRE 112 304 112 -464
WIRE 256 304 112 304
WIRE 304 304 256 304
WIRE 944 304 896 304
WIRE 992 304 944 304
WIRE 1104 304 1104 192
WIRE 1104 304 1072 304
WIRE 1152 304 1104 304
WIRE 112 320 112 304
WIRE 112 416 112 400
WIRE 256 416 112 416
WIRE 304 416 256 416
WIRE 944 416 896 416
WIRE 992 416 944 416
WIRE 1104 416 1104 304
WIRE 1104 416 1072 416
WIRE 112 432 112 416
WIRE 112 528 112 512
WIRE 256 528 112 528
WIRE 304 528 256 528
WIRE 928 528 896 528
WIRE 48 640 48 -192
WIRE 256 640 48 640
WIRE 304 640 256 640
WIRE 928 640 896 640
WIRE 48 656 48 640
WIRE 48 752 48 736
WIRE 256 752 48 752
WIRE 304 752 256 752
WIRE 928 752 896 752
WIRE 48 768 48 752
WIRE 48 864 48 848
WIRE 256 864 48 864
WIRE 304 864 256 864
WIRE 928 864 896 864
WIRE 608 944 608 912
FLAG -496 -512 0
FLAG -496 -352 0
FLAG -496 -80 0
FLAG 176 272 0
FLAG 112 608 0
FLAG 48 944 0
FLAG 608 944 0
FLAG 928 752 0
FLAG 1248 -512 0
FLAG 1120 -512 0
FLAG 1120 -624 out
FLAG 256 -32 v1
FLAG 256 80 uv1
FLAG 256 192 ov1
FLAG 256 304 v2
FLAG 256 416 uv2
FLAG 256 528 ov2
FLAG 256 640 v3
FLAG 256 752 uv3
FLAG 256 864 ov3
FLAG 944 192 _val1
FLAG 944 304 _val2
FLAG 944 416 _val3
SYMBOL res 160 176 R0
SYMATTR User1 1%
SYMATTR InstName R1
SYMATTR Value 80.6k
SYMATTR SpiceLine tol=1 pwr=0.1
SYMBOL res 160 80 R0
SYMATTR User1 1%
SYMATTR InstName R2
SYMATTR Value 200k
SYMATTR SpiceLine tol=1 pwr=0.1
SYMBOL res 160 -32 R0
SYMATTR User1 1%
SYMATTR InstName R3
SYMATTR Value 909k
SYMATTR SpiceLine tol=1 pwr=0.1
SYMBOL res 96 512 R0
SYMATTR InstName R4
SYMATTR Value 35.7k
SYMBOL res 96 416 R0
SYMATTR InstName R5
SYMATTR Value 86.6k
SYMBOL res 96 304 R0
SYMATTR InstName R6
SYMATTR Value 374k
SYMBOL res 1088 176 R90
WINDOW 0 0 56 VBottom 2
WINDOW 3 32 56 VTop 2
SYMATTR InstName R7
SYMATTR Value 1Meg
SYMATTR User1 5%
SYMBOL res 32 848 R0
SYMATTR InstName R8
SYMATTR Value 82.5k
SYMBOL res 32 752 R0
SYMATTR InstName R9
SYMATTR Value 60.4k
SYMBOL res 32 640 R0
SYMATTR InstName R10
SYMATTR Value 255k
SYMBOL cap 752 -432 R0
SYMATTR InstName C1
SYMATTR Value 15n
SYMBOL res 624 -352 R0
SYMATTR InstName R11
SYMATTR Value 1.43K
SYMBOL schottky 752 -256 M180
WINDOW 0 24 64 Left 2
WINDOW 3 24 0 Left 2
SYMATTR InstName D1
SYMATTR Value BAT54
SYMBOL res 1088 288 R90
WINDOW 0 0 56 VBottom 2
WINDOW 3 32 56 VTop 2
SYMATTR InstName R12
SYMATTR Value 1Meg
SYMATTR User1 5%
SYMBOL res 1088 400 R90
WINDOW 0 0 56 VBottom 2
WINDOW 3 32 56 VTop 2
SYMATTR InstName R13
SYMATTR Value 1Meg
SYMATTR User1 5%
SYMBOL pmos 256 -576 R270
WINDOW 0 51 49 VTop 2
WINDOW 3 -11 75 VLeft 2
SYMATTR InstName Q1
SYMATTR Value FDS4685
SYMBOL polcap 1104 -608 R0
WINDOW 3 24 56 Left 2
SYMATTR Value 100µ
SYMATTR InstName C2
SYMATTR Description Capacitor
SYMATTR Type cap
SYMATTR SpiceLine Rser=0.05
SYMBOL current 1248 -608 R0
WINDOW 39 23 82 Left 2
WINDOW 3 37 40 Left 2
SYMATTR SpiceLine load
SYMATTR Value 2
SYMATTR InstName I1
SYMBOL voltage -496 -464 R0
WINDOW 39 24 50 Left 2
WINDOW 123 0 0 Left 2
SYMATTR InstName V2
SYMATTR Value PULSE(0 15 3 15 5 1 0 1)
SYMBOL voltage -496 -192 R0
WINDOW 39 24 50 Left 2
WINDOW 123 0 0 Left 2
SYMATTR InstName V3
SYMATTR Value PULSE(0 6 0 10 50 1m 0 1)
SYMBOL pmos 528 -576 M270
WINDOW 0 52 49 VTop 2
WINDOW 3 -11 72 VLeft 2
SYMATTR InstName Q2
SYMATTR Value FDS4685
SYMBOL pmos 464 -416 R270
WINDOW 0 56 47 VTop 2
WINDOW 3 -28 93 VLeft 2
SYMATTR InstName Q3
SYMATTR Value FDS4685
SYMBOL pmos 736 -416 M270
WINDOW 0 53 47 VTop 2
WINDOW 3 -31 88 VLeft 2
SYMATTR InstName Q4
SYMATTR Value FDS4685
SYMBOL pmos 672 -144 R270
WINDOW 0 56 39 VTop 2
WINDOW 3 -10 76 VLeft 2
SYMATTR InstName Q5
SYMATTR Value FDS4685
SYMBOL pmos 944 -144 M270
WINDOW 0 51 50 VTop 2
WINDOW 3 -11 70 VLeft 2
SYMATTR InstName Q6
SYMATTR Value FDS4685
SYMBOL voltage -496 -624 R0
WINDOW 39 24 44 Left 2
WINDOW 123 0 0 Left 2
SYMATTR InstName V1
SYMATTR Value PWL(0 0 10 13 15 18 18 4 25 -2 25.1 20)
SYMBOL SpecialFunctions\\LTC4417 608 352 R0
SYMATTR InstName U1
SYMBOL source-Vmarker 1152 304 M0
SYMATTR Value V=5.1V
SYMATTR InstName U2
TEXT 1000 904 Left 2 !.tran 30
TEXT 616 -664 Bottom 2 ;LTC4417 - Prioritized PowerPath Controller\nPriority Switching from 12V Main to 14.8V Battery Backup Supply\nInput: 12V Wall, 14.8 Li-Ion, 12V SLA     Output: 2A
TEXT -160 968 Left 2 ;Note:\n  If the simulation model is not found please update with the "Sync Release" command from the "Tools" menu.\n  It remains the customer's responsibility to verify proper and reliable operation in the actual application.\n  Component substitution and printed circuit board layout may significantly affect circuit performance or reliability.\n  Contact your local sales representative for assistance. This circuit is distributed to customers only for use with LTC parts.\n  Copyright © 2013 Linear Technology Inc. All rights reserved.
TEXT -200 112 Left 2 !.op
TEXT -744 1600 Left 1 ;LTC4417 Design Tool                                                                                                                                             \n                                                                                                                                                \n                                                                                                                                                \nDESIGN PARAMS                                                                                   CH 1            CH 2            CH 3            \n                Supply Droop:   1               V                               Supply Voltage: 12              5               4               V\n                Vout Droop:     5               V                               Tolerance:      10              5               10              %\n                                                                                Source Resistance:              0.02            0.02            0.02            Ohms\n                                                                                                                                                \nTHRESHOLDS                                                                                      CH 1            CH 2            CH 3            \n                                                                                UV Max:         10.22           4.52            3.42            V\n                                                                                OV Min:         13.78           5.48            4.58            V\n                                                                                UV Desired:     4.25            4.1             2.8             V\n                                                                                OV Desired:     15              14              4.8             V\n                                                                                                                                                \nHYSTERESIS                                                                                                                                      \n                Hys config:     Internal                                                                                                        \n                                                                                                                                                \n                IF INTERNAL                                                                                                                     \n                Hys desired:    3               %                                                                                               \n                Idiv:           10              uA                                                                                              \n                                                                                                                                                \n                IF EXTERNAL                                                                                                                     \n                Hys desired:    0.03            V                                                                                               \n                I UV/OV:        0               nA                                                                                              \n                R Hys:          0               kOhms                                                                                           \n                                                                                                                                                \nMOSFET                                                                                          CH 1            CH 2            CH 3            \n                                                                                VDS MAX:        -20             -20             -20             V\n                                                                                RDS ON:         8.5             8.5             8.5             mOhms\n                                                                                IDM:            50              50              50              A\n                                                                                CRSS:           4000.0000000000005              4000.0000000000005              4000.0000000000005              pF\n                                                                                VGS MAX:        8               8               8               V\n                                                                                VTH MAX:        1.2             1.2             1.2             V\n                                                                                                                                                \nCAPACITOR                                                                                                                                       \n                Cap ESR:        25              Ohms                                                                                            \n                                                                                                                                                \nINRUSH PARAMETERS                                                                                                                                               \n                Supply Droop:   1               V                                                                                               \n                Vout Droop:     5               V                                                                                               \n                Iload:          1.25            A                                                                                               \n                Cout:           82              uF                                                                                              \n                                                                                                                                                \nINRUSH CURRENT LIMITING                                                                                         CH 1            CH 2            CH 3            \n                                                                                Tolerable Inrush:               6375            6.1499999999999995              N/A             A\n                                                                                Target Inrush:  1               1               1               A\n                                                                                Cs:             40              40              40              nF\n                                                                                Rs:             9760            9760            9760            Ohms\n                                                                                CVS:            0.4             0.4             0.4             uF\n                                                                                CV Min:         undefined       undefined       undefined       uF\n                                                                                Actual Inrush:  2.2581967213114753              2.2581967213114753              2.2581967213114753              A\n                                                                                                                                                \nRESISTOR NETWORK                                                                                                                                                \n                                                                                                                                                \n                CHANNEL 1                                                                                                                       \n                                                                                                                                                \n                                Topology:       Three Resistor                                                                                  \n                                R1              80.6            kOhms                                                                           \n                                R2              200             kOhms                                                                           \n                                R3              909             kOhms                                                                           \n                                                                                                                                                \n                                                                                                                                                \n                CHANNEL 2                                                                                                                       \n                                                                                                                                                \n                                Topology:       Three Resistor                                                                                  \n                                R5              35.7            kOhms                                                                           \n                                R6              86.6            kOhms                                                                           \n                                R7              374             kOhms                                                                           \n                                                                                                                                                \n                                                                                                                                                \n                CHANNEL 3                                                                                                                       \n                                                                                                                                                \n                                Topology:       Three Resistor                                                                                  \n                                R9              82.5            kOhms                                                                           \n                                R10             60.4            kOhms                                                                           \n                                R11             255             kOhms                                                                           \n                                                                                                                                                \n                                                                                                                                                \nACTUAL THRESHOLDS                                                                                               CH1             CH2             CH3             \n                                                                                UV Fall:        4.239486813970064               4.0580539656582175              2.7844646606018193              V\n                                                                                UV Rise:        4.366671418389166               4.179795584627964               2.8679986004198743              V\n                                                                                UV Hys:         0.12718460441910207             0.12174161896974667             0.08353393981805501             V\n                                                                                OV Fall:        14.31652605459057               13.484901960784313              4.678339393939394               V\n                                                                                OV Rise:        14.759305210918114              13.901960784313726              4.823030303030303               V\n                                                                                OV Hys:         0.4427791563275445              0.4170588235294126              0.14469090909090898             V\n                                                                                Idiv Total:     10.087424344317418              10.07455168245013               10.052777079668259              uA\n                                                                                Ileak Err:      0.09913333333333334             0.09926000000000001             0.099475        %
TEXT -688 1304 Left 0 ;http://beta-tools.analog.com/ltpowertools/LTC4417/#vin_v1=12&tol_v1=10&vin_v2=5&tol_v2=5&vin_v3=4&tol_v3=10&uv_v1=4.25&ov_v1=15&uv_v2=4.1&ov_v2=14&uv_v3=2.8&ov_v3=4.8&hys_config=int&idiv=10&idiv_ch2=10&idiv_ch3=10&rsource_v2=0.02&rsource_v3=0.02&fet_selection=FDS4465&fet_selection_ch2=FDS4465&fet_selection_ch3=FDS4465&rsource_v1=0.02&esr=0.025&rds_on=8.5&rds_on_ch2=8.5&rds_on_ch3=8.5&use_custom_fet=false&vdroop_supply=1&vdroop_out=5&iload=1.25&inrush_target=1&inrush_target_ch2=1&inrush_target_ch3=1&cout_act=82&use_std_inrush=true&topology_ch1=3rt&use_std_ch1=true&topology_ch2=3rt&use_std_ch2=true&topology_ch3=3rt&use_std_ch3=true
