Version 4
SHEET 1 1056 680
WIRE -32 128 -96 128
WIRE 32 128 -32 128
WIRE 80 128 32 128
WIRE 192 128 160 128
WIRE 320 128 272 128
WIRE 384 128 320 128
WIRE 416 128 384 128
WIRE -96 176 -96 128
WIRE 320 208 320 128
WIRE 416 208 416 128
WIRE -96 288 -96 256
WIRE 320 320 320 288
WIRE 416 320 416 272
WIRE 384 400 320 400
WIRE 416 400 384 400
WIRE 320 432 320 400
WIRE 32 448 32 128
WIRE 240 448 32 448
WIRE 320 528 320 512
FLAG 320 320 0
FLAG 416 320 0
FLAG 320 528 0
FLAG 240 496 0
FLAG -96 288 0
FLAG -32 128 e
FLAG 384 128 a
FLAG 384 400 l
SYMBOL res 64 144 R270
WINDOW 0 25 56 VTop 2
WINDOW 3 7 56 VBottom 2
SYMATTR InstName R1
SYMATTR Value 10
SYMBOL ind 176 144 R270
WINDOW 0 30 56 VTop 2
WINDOW 3 6 56 VBottom 2
SYMATTR InstName L1
SYMATTR Value 10µ
SYMBOL res 304 192 R0
SYMATTR InstName R2
SYMATTR Value 100k
SYMBOL cap 400 208 R0
SYMATTR InstName C1
SYMATTR Value 100n
SYMBOL crtl-V-V 320 416 R0
SYMATTR InstName E1
SYMATTR Value laplace={R2/( R2+(R1+s*L) *(1+R2*C*s) ) }
SYMBOL source-V -96 160 R0
WINDOW 123 28 105 Left 2
WINDOW 39 0 0 Left 2
SYMATTR InstName V1
SYMATTR Value ""
SYMATTR Value2 AC 1
TEXT -124 550 Left 2 !.ac oct 100 10 1meg
TEXT 448 368 Left 2 !.param R1=10, R2=100k, C=100n, L=10u
