Version 4
SHEET 1 1556 1048
FLAG 160 464 0
SYMBOL npn 272 432 R0
SYMATTR InstName Q1
SYMBOL npn 784 944 M0
SYMATTR InstName Q2
SYMBOL npn 528 64 R0
SYMATTR InstName Q3
SYMBOL npn 1072 96 M0
SYMATTR InstName Q4
SYMBOL npn 880 944 R0
SYMATTR InstName Q5
SYMBOL pnp 272 256 M180
SYMATTR InstName Q6
SYMBOL pnp 528 640 M180
SYMATTR InstName Q7
SYMBOL res 768 336 R90
WINDOW 0 0 56 VBottom 2
WINDOW 3 32 56 VTop 2
SYMATTR InstName R1
SYMBOL npn 1296 416 M0
SYMATTR InstName Q8
SYMBOL pnp 1088 592 R180
SYMATTR InstName Q9
SYMBOL pnp 1296 288 R180
SYMATTR InstName Q10
SYMBOL res 144 336 R0
SYMATTR InstName R2
SYMBOL cap 80 304 R90
WINDOW 0 0 32 VBottom 2
WINDOW 3 32 32 VTop 2
SYMATTR InstName C1
