Version 4
SHEET 1 1256 708
WIRE 96 -128 -64 -128
WIRE 144 -80 144 -176
WIRE 96 -64 96 -128
WIRE 96 32 96 -16
WIRE -64 64 -64 -128
WIRE -64 64 -144 64
WIRE 0 64 -64 64
WIRE -144 80 -144 64
WIRE -144 80 -224 80
WIRE -144 96 -144 80
WIRE -224 112 -224 80
WIRE 144 112 144 0
WIRE 208 112 144 112
WIRE 256 112 208 112
WIRE 144 160 144 112
WIRE -224 208 -224 192
WIRE -144 208 -144 176
WIRE 256 256 256 112
WIRE 144 272 144 240
WIRE 144 416 144 352
WIRE 208 416 144 416
WIRE 256 416 256 320
WIRE 256 416 208 416
FLAG 208 416 0
FLAG -224 208 0
FLAG -144 208 0
FLAG 208 112 u
FLAG 96 32 0
SYMBOL ind 128 256 R0
SYMATTR InstName L1
SYMATTR Value 1m
SYMBOL cap 240 256 R0
SYMATTR InstName C1
SYMATTR Value 10µ
SYMBOL voltage -224 96 R0
WINDOW 3 -147 171 Left 2
SYMATTR InstName V1
SYMATTR Value PULSE(0 1 2m 20n 20n 10m )
SYMBOL res 160 256 R180
WINDOW 0 36 76 Left 2
WINDOW 3 36 40 Left 2
SYMATTR InstName R2
SYMATTR Value 1
SYMBOL sw 144 16 M180
SYMATTR InstName Short_I2
SYMATTR Value SWA
SYMBOL source-Vmarker 144 -176 R0
SYMATTR InstName U1
TEXT -560 440 Left 2 !.tran 25m
TEXT -264 376 Left 2 !.param peak=10
TEXT 296 184 Left 2 ;.ic V(u)=10V
TEXT 536 416 Left 2 !.model swA SW(Ron=.1u Roff=100Meg Vt=0.1 Vh=-.5 )
