Version 4
SHEET 1 1752 3456
WIRE -416 1248 -416 1216
WIRE -320 1248 -320 1216
WIRE -416 1344 -416 1328
WIRE -368 1344 -416 1344
WIRE -320 1344 -320 1328
WIRE -320 1344 -368 1344
WIRE -368 1360 -368 1344
WIRE 176 1440 -144 1440
WIRE -144 1488 -144 1440
WIRE 176 1568 176 1440
WIRE 176 1568 32 1568
WIRE -144 1616 -144 1568
WIRE -32 1616 -144 1616
WIRE 176 1616 176 1568
WIRE -144 1664 -144 1616
WIRE 112 1664 32 1664
WIRE 32 1744 32 1664
WIRE 64 1744 32 1744
WIRE 176 1744 176 1712
WIRE 176 1744 144 1744
WIRE -144 1776 -144 1744
WIRE 176 1840 176 1744
WIRE 208 1840 176 1840
WIRE 368 1840 208 1840
WIRE -240 1856 -272 1856
WIRE -144 1856 -144 1840
WIRE -144 1856 -240 1856
WIRE 368 1872 368 1840
WIRE -144 1888 -144 1856
WIRE -272 1936 -272 1856
WIRE 64 1968 32 1968
WIRE 176 1968 176 1840
WIRE 176 1968 144 1968
WIRE -144 1984 -144 1952
WIRE 176 2000 176 1968
WIRE 368 2000 368 1952
WIRE -272 2048 -272 2016
WIRE 32 2048 32 1968
WIRE 112 2048 32 2048
WIRE -144 2096 -144 2064
WIRE -32 2096 -144 2096
WIRE -144 2144 -144 2096
WIRE 176 2144 176 2096
WIRE 176 2144 32 2144
WIRE -144 2272 -144 2224
WIRE 160 2272 -144 2272
WIRE 176 2272 176 2144
WIRE 176 2272 160 2272
WIRE 96 2688 96 2656
WIRE 96 2688 -16 2688
WIRE -16 2720 -16 2688
WIRE 96 2816 96 2688
WIRE -16 2832 -16 2800
WIRE 48 2832 -16 2832
WIRE 96 2928 96 2912
WIRE 288 2944 288 2912
WIRE 96 3040 96 3008
WIRE 288 3040 288 3024
WIRE 96 3056 96 3040
WIRE 240 3120 192 3120
WIRE 192 3168 192 3120
WIRE 192 3264 192 3248
WIRE 288 3264 288 3136
WIRE 288 3264 192 3264
WIRE 288 3296 288 3264
FLAG -368 1360 0
FLAG -320 1216 V-
FLAG -416 1216 V+
FLAG 1680 2992 0
FLAG -912 2960 0
FLAG 176 1440 V+
FLAG 160 2272 V-
FLAG -272 2048 0
FLAG -240 1856 inDar
FLAG 208 1840 outDar
FLAG 368 2000 0
FLAG 288 2912 V+
FLAG 288 3296 V-
FLAG 96 2656 V+
FLAG 96 3040 V-
SYMBOL source-V -416 1232 R0
WINDOW 123 0 0 Left 0
WINDOW 39 0 0 Left 0
SYMATTR InstName V1
SYMATTR Value 20
SYMBOL source-V -320 1232 R0
WINDOW 123 0 0 Left 0
WINDOW 39 0 0 Left 0
SYMATTR InstName V2
SYMATTR Value -20
SYMBOL EIT_Semiconductors\\pnp 112 2096 M180
SYMATTR InstName T4
SYMATTR Value mj2955_f3
SYMBOL EIT_Semiconductors\\npn 112 1616 R0
SYMATTR InstName T3
SYMATTR Value 2N3055
SYMBOL EIT_Semiconductors\\npn -32 1568 R0
SYMATTR InstName T1
SYMATTR Value npnx
SYMBOL EIT_Semiconductors\\pnp -32 2144 M180
SYMATTR InstName T2
SYMATTR Value pnpx
SYMBOL res 160 1728 R90
WINDOW 0 7 56 VBottom 0
WINDOW 3 25 56 VTop 0
SYMATTR InstName R5a
SYMATTR Value {R5_6}
SYMBOL res 160 1984 M270
WINDOW 0 25 56 VTop 0
WINDOW 3 7 56 VBottom 0
SYMATTR InstName R6a
SYMATTR Value {R5_6}
SYMBOL res -160 1472 R0
SYMATTR InstName R1
SYMATTR Value {R1_2}
SYMBOL res -160 1648 R0
SYMATTR InstName R3a
SYMATTR Value {R3_4}
SYMBOL res -160 1968 R0
SYMATTR InstName R4a
SYMATTR Value {R3_4}
SYMBOL res -160 2128 R0
SYMATTR InstName R2a
SYMATTR Value {R1_2}
SYMBOL diode -160 1776 R0
SYMATTR InstName D1
SYMATTR Value Dx
SYMBOL diode -160 1888 R0
SYMATTR InstName D2
SYMATTR Value Dx
SYMBOL source-V -272 1920 R0
WINDOW 3 -233 52 Left 0
WINDOW 123 0 0 Left 0
WINDOW 39 0 0 Left 0
SYMATTR Value SINE(0 8 {fsin})
SYMATTR InstName V5
SYMBOL res 352 1856 R0
SYMATTR InstName R4
SYMATTR Value 25
SYMBOL EIT_Semiconductors\\nmos 240 3040 R0
SYMATTR InstName NMOS1
SYMATTR Value SI4404DY
SYMBOL EIT_Semiconductors\\pmos 48 2912 M180
SYMATTR InstName PMOS1
SYMATTR Value Si7409DN
SYMBOL res 304 2928 M0
SYMATTR InstName R2
SYMATTR Value 5
SYMBOL source-V 192 3152 R0
WINDOW 3 -300 61 Left 0
WINDOW 123 0 0 Left 0
WINDOW 39 0 0 Left 0
SYMATTR Value PULSE(0 2.5 0 100m)
SYMATTR InstName V3
SYMBOL res 112 3024 R180
WINDOW 0 36 76 Left 0
WINDOW 3 36 40 Left 0
SYMATTR InstName R3
SYMATTR Value 5
SYMBOL source-V -16 2704 R0
WINDOW 3 -300 61 Left 0
WINDOW 123 0 0 Left 0
WINDOW 39 0 0 Left 0
SYMATTR Value PULSE(0 2.5 0 100m)
SYMATTR InstName V4
TEXT -704 1272 Left 0 ;.dc V4 -20 20 0.01
TEXT -696 1232 Left 0 !.param fsin=1k
TEXT -408 2472 Left 0 !.tran 100m
TEXT -696 1544 Left 0 !.model npnx npn (Bf=200 Is={10m/exp(0.7/26m)}\n.model pnpx pnp (Bf=200 Is={10m/exp(0.7/26m)}\n.model Dx D (Is={(20*50u)/exp(0.7/26m)}
TEXT -112 1256 Left 0 !.param R1_2=6.57k\n.param R3_4=400\n.param R5_6=40
TEXT 960 1256 Left 0 !**************************************\n*      Model Generated by MODPEX     *\n*Copyright(c) Symmetry Design Systems*\n*         All Rights Reserved        *\n*    UNPUBLISHED LICENSED SOFTWARE   *\n*   Contains Proprietary Information *\n*      Which is The Property of      *\n*     SYMMETRY OR ITS LICENSORS      *\n*Commercial Use or Resale Restricted *\n*   by Symmetry License Agreement    *\n**************************************\n* Model generated on Jun 12, 03\n* MODEL FORMAT: PSpice\n.MODEL mjb45h11 pnp\n+IS=1.20452e-15 BF=678.517 NF=0.85 VAF=10\n+IKF=10 ISE=5.69532e-11 NE=2.22561 BR=3.45968\n+NR=1.5 VAR=1.1599 IKR=1.78557 ISC=3.75206e-14\n+NC=1 RB=0.252562 IRB=0.01 RBM=0.252562\n+RE=1e-05 RC=0.0523543 XTB=0.56917 XTI=1\n+EG=1.05 CJE=3.03491e-09 VJE=0.649052 MJE=0.351764\n+TF=3.70885e-09 XTF=1.5 VTF=1.00004 ITF=0.999992\n+CJC=3.00058e-10 VJC=0.600011 MJC=0.409952 XCJC=0.8\n+FC=0.534314 CJS=0 VJS=0.75 MJS=0.5\n+TR=1e-07 PTF=0 KF=0 AF=1\n \n**************************************\n*      Model Generated by MODPEX     *\n*Copyright(c) Symmetry Design Systems*\n*         All Rights Reserved        *\n*    UNPUBLISHED LICENSED SOFTWARE   *\n*   Contains Proprietary Information *\n*      Which is The Property of      *\n*     SYMMETRY OR ITS LICENSORS      *\n*Commercial Use or Resale Restricted *\n*   by Symmetry License Agreement    *\n**************************************\n* Model generated on Jun 12, 03\n* MODEL FORMAT: PSpice\n.MODEL mjb44h11 npn\n+IS=1.45468e-14 BF=135.617 NF=0.85 VAF=10\n+IKF=5.15565 ISE=2.02483e-13 NE=3.99964 BR=13.5617\n+NR=0.847424 VAR=100 IKR=8.44427 ISC=1.86663e-13\n+NC=1.00046 RB=1.35729 IRB=0.1 RBM=0.1\n+RE=0.0001 RC=0.037687 XTB=0.90331 XTI=1\n+EG=1.20459 CJE=3.02297e-09 VJE=0.649408 MJE=0.351062\n+TF=2.93022e-09 XTF=1.5 VTF=1.00001 ITF=0.999997\n+CJC=3.0004e-10 VJC=0.600008 MJC=0.409966 XCJC=0.8\n+FC=0.533878 CJS=0 VJS=0.75 MJS=0.5\n+TR=2.73328e-08 PTF=0 KF=0 AF=1\n \n \n*June 13, 2005\n*Doc. ID: 75307, S-51095, Rev. B\n*File Name: Si4404DY_PS.txt and Si4404DY_PS.lib\n.SUBCKT SI4404DY 4 1 2\nM1  3 1 2 2 NMOS W=5064222u L=0.50u \nM2  2 1 2 4 PMOS W=5064222u L=0.61u\nR1  4 3     RTEMP 15E-4\nCGS 1 2     2850E-12\nDBD 2 4     DBD\n**************************************************************************\n.MODEL  NMOS       NMOS (  LEVEL  = 3               TOX    = 5E-8\n+ RS     = 9E-4            RD     = 0               NSUB   = 1.87E17   \n+ kp     = 1.56E-5         UO     = 650             \n+ VMAX   = 0               XJ     = 5E-7            KAPPA  = 2E-2\n+ ETA    = 1E-4            TPG    = 1  \n+ IS     = 0               LD     = 0                             \n+ CGSO   = 0               CGDO   = 0               CGBO   = 0 \n+ NFS    = 0.8E12          DELTA  = 0.1)\n*************************************************************************\n.MODEL  PMOS       PMOS (LEVEL    = 3               TOX    = 5E-8\n+NSUB    = 2.2E16          TPG    = -1)   \n*************************************************************************\n.MODEL DBD D (CJO=1480e-12 VJ=.38 M=0.30 \n+FC=0.5 IS=1E-14 TT=29.3E-8 N=1 BV=31)\n*************************************************************************\n.MODEL RTEMP RES (TC1=5.5E-3 TC2=5.5E-6)\n*************************************************************************\n.ENDS
