Version 4
SHEET 1 952 724
WIRE 368 112 272 112
WIRE 464 112 368 112
WIRE 704 112 464 112
WIRE 864 112 704 112
WIRE 864 176 864 112
WIRE 368 192 368 112
WIRE 464 192 464 112
WIRE 272 272 272 112
WIRE 704 288 704 112
WIRE 368 304 368 272
WIRE 464 304 464 256
WIRE 464 304 368 304
WIRE 496 304 464 304
WIRE 512 304 496 304
WIRE 608 304 576 304
WIRE 656 304 608 304
WIRE 208 320 176 320
WIRE 368 320 368 304
WIRE 496 368 496 304
WIRE 512 368 496 368
WIRE 608 368 608 304
WIRE 608 368 592 368
WIRE 48 432 48 416
WIRE 48 432 16 432
WIRE 176 432 176 320
WIRE 176 432 128 432
WIRE 272 432 272 368
WIRE 368 432 368 384
WIRE 368 432 272 432
WIRE 704 432 704 384
WIRE 752 432 704 432
WIRE 864 432 864 240
WIRE 864 432 832 432
WIRE 512 480 496 480
WIRE 608 480 592 480
WIRE 704 480 704 432
WIRE 16 496 16 432
WIRE 272 496 272 432
WIRE 864 528 864 432
WIRE 176 544 176 432
WIRE 208 544 176 544
WIRE 368 560 368 432
WIRE 496 560 496 480
WIRE 496 560 368 560
WIRE 512 560 496 560
WIRE 608 560 608 480
WIRE 608 560 576 560
WIRE 656 560 608 560
WIRE 16 608 16 576
WIRE 272 656 272 592
WIRE 592 656 272 656
WIRE 704 656 704 576
WIRE 704 656 592 656
WIRE 864 656 864 592
WIRE 864 656 704 656
WIRE 592 704 592 656
FLAG 592 704 0
FLAG 16 608 0
SYMBOL EIT_Semiconductors\\npn 208 272 R0
SYMATTR InstName Q1
SYMATTR Value BC337-25
SYMBOL EIT_Semiconductors\\pnp 208 592 M180
SYMATTR InstName Q2
SYMATTR Value BC807-25
SYMBOL res 144 416 R90
WINDOW 0 7 56 VBottom 0
WINDOW 3 25 56 VTop 0
SYMATTR InstName R1
SYMATTR Value 100
SYMBOL res 352 176 R0
SYMATTR InstName R2
SYMATTR Value 1k
SYMBOL cap 352 320 R0
SYMATTR InstName C1
SYMATTR Value 10n
SYMBOL res 608 352 R90
WINDOW 0 7 56 VBottom 0
WINDOW 3 25 56 VTop 0
SYMATTR InstName R3
SYMATTR Value 15
SYMBOL res 608 464 R90
WINDOW 0 7 56 VBottom 0
WINDOW 3 25 56 VTop 0
SYMATTR InstName R4
SYMATTR Value 15
SYMBOL EIT_Semiconductors\\nmos 656 480 R0
SYMATTR InstName NMOS1
SYMATTR Value SI4404DY
SYMBOL EIT_Semiconductors\\pmos 656 384 M180
SYMATTR InstName PMOS1
SYMATTR Value Si7409DN
SYMBOL cap 848 176 R0
SYMATTR InstName C2
SYMATTR Value 1000µ
SYMBOL cap 848 528 R0
SYMATTR InstName C3
SYMATTR Value 1000µ
SYMBOL res 848 416 R90
WINDOW 0 7 56 VBottom 0
WINDOW 3 25 56 VTop 0
SYMATTR InstName R5
SYMATTR Value 10
SYMBOL schottky 480 256 R180
WINDOW 0 24 72 Left 0
WINDOW 3 24 0 Left 0
SYMATTR InstName D1
SYMATTR Value 1N5818
SYMATTR Description Diode
SYMATTR Type diode
SYMBOL schottky 576 288 R90
WINDOW 0 0 32 VBottom 0
WINDOW 3 32 32 VTop 0
SYMATTR InstName D2
SYMATTR Value 1N5818
SYMATTR Description Diode
SYMATTR Type diode
SYMBOL schottky 576 544 R90
WINDOW 0 0 32 VBottom 0
WINDOW 3 32 32 VTop 0
SYMATTR InstName D3
SYMATTR Value 1N5818
SYMATTR Description Diode
SYMATTR Type diode
SYMBOL source-V 16 480 R0
WINDOW 3 -330 6 Left 0
WINDOW 123 0 0 Left 0
WINDOW 39 0 0 Left 0
SYMATTR Value PULSE(0 10 0 10n 10n 1m 2m)
SYMATTR InstName V1
