Version 4
SHEET 1 880 680
WIRE 16 -1088 -48 -1088
WIRE 64 -1088 16 -1088
WIRE 64 -1024 64 -1088
WIRE -48 -960 -48 -1088
WIRE 64 -928 64 -944
WIRE 64 -928 -16 -928
WIRE 64 -896 64 -928
WIRE -48 -848 -48 -896
WIRE 0 -848 -48 -848
WIRE -48 -784 -48 -848
WIRE -48 -640 -48 -704
WIRE 64 -640 64 -800
WIRE -80 -368 -80 -432
WIRE 32 -272 32 -352
WIRE -80 -224 -80 -288
WIRE -32 -224 -80 -224
WIRE -80 -176 -80 -224
WIRE 32 -144 32 -176
WIRE 32 -144 -48 -144
WIRE 32 -112 32 -144
WIRE -80 16 -80 -112
WIRE -16 16 -80 16
WIRE 32 16 32 -32
WIRE 32 16 -16 16
FLAG -80 -432 Vplus
FLAG 32 -352 Isink1
FLAG -16 16 Vmin
FLAG 16 -1088 Vplus
FLAG -48 -640 0
FLAG 64 -640 0
SYMBOL TL431 -80 -128 R180
SYMATTR InstName U1
SYMBOL res -96 -384 R0
SYMATTR InstName R1
SYMATTR Value 4.7k
SYMBOL EIT_Semiconductors\\npn -32 -272 R0
SYMATTR InstName Q1
SYMATTR Value BC550C
SYMBOL res 16 -128 R0
SYMATTR InstName R2
SYMATTR Value 613
SYMBOL EIT_Semiconductors\\pnp 0 -800 M180
SYMATTR InstName Q2
SYMBOL TL431 -48 -912 R180
SYMATTR InstName U2
SYMBOL res 48 -1040 R0
SYMATTR InstName R3
SYMATTR Value 613
SYMBOL res -64 -800 R0
SYMATTR InstName R4
SYMATTR Value 613
