Version 4
SHEET 1 880 680
WIRE 96 -576 80 -576
WIRE -16 -496 -32 -496
WIRE 80 -496 80 -576
WIRE 80 -496 64 -496
WIRE 80 -448 80 -496
WIRE -256 -432 -368 -432
WIRE -256 -400 -256 -432
WIRE -32 -400 -32 -496
WIRE 16 -400 -32 -400
WIRE -384 -384 -400 -384
WIRE -368 -384 -368 -432
WIRE -368 -384 -384 -384
WIRE -32 -336 -32 -400
WIRE -368 -320 -368 -384
WIRE 80 -304 80 -352
WIRE 80 -304 0 -304
WIRE 80 -272 80 -304
WIRE -256 -224 -256 -320
WIRE -368 -176 -368 -240
WIRE -320 -176 -368 -176
WIRE -32 -160 -32 -272
WIRE 80 -160 80 -192
WIRE 80 -160 -32 -160
WIRE -368 -128 -368 -176
WIRE -256 -96 -256 -128
WIRE -256 -96 -336 -96
WIRE -256 -64 -256 -96
WIRE 80 -64 80 -160
WIRE 80 32 80 16
WIRE -368 64 -368 -64
WIRE -304 64 -368 64
WIRE -256 64 -256 16
WIRE -256 64 -304 64
FLAG 96 -576 Vplus
FLAG -384 -384 Vplus
FLAG -304 64 0
FLAG 80 32 0
SYMBOL npn 16 -448 R0
SYMATTR InstName Q1
SYMATTR Value BC550C
SYMBOL res 80 -480 M270
WINDOW 0 25 56 VTop 2
WINDOW 3 7 56 VBottom 2
SYMATTR InstName R1
SYMATTR Value 4.7k
SYMBOL res 64 -288 R0
SYMATTR InstName R2
SYMATTR Value {par2}
SYMBOL SBORKA\\REF\\tlv431_my -16 -336 M0
SYMATTR InstName U1
SYMBOL res -384 -336 R0
SYMATTR InstName R4
SYMATTR Value 4.7k
SYMBOL EIT_Semiconductors\\npn -320 -224 R0
SYMATTR InstName Q2
SYMATTR Value BC550C
SYMBOL res -272 -80 R0
SYMATTR InstName R5
SYMATTR Value {par1}
SYMBOL SBORKA\\REF\\tlv431_my -352 -128 M0
SYMATTR InstName U2
SYMBOL res -272 -416 R0
SYMATTR InstName R3
SYMATTR Value 100
SYMBOL res 64 -80 R0
SYMATTR InstName R6
SYMATTR Value 100
SYMBOL source-Vmarker -368 -432 R0
SYMATTR Value V=15
SYMATTR InstName U4
TEXT -506 88 Left 2 !.op
TEXT -280 192 Left 2 !.param par1 = {1.249/3e-3}\n.param par2 = {1.249/3e-3}
TEXT 120 -136 Left 2 ;.step param par1  100 2k 50
TEXT 176 -64 Left 2 !.step param par2  100 2k 100
