Version 4
SHEET 1 1300 680
WIRE 656 -1008 656 -1056
WIRE 752 -1008 752 -1056
WIRE 656 -880 656 -928
WIRE 752 -880 752 -928
WIRE 752 -880 656 -880
WIRE -208 -864 -208 -880
WIRE 752 -848 752 -880
WIRE 112 -800 112 -912
WIRE 112 -800 -32 -800
WIRE -208 -752 -208 -784
WIRE -96 -752 -208 -752
WIRE 112 -752 112 -800
WIRE -208 -688 -208 -752
WIRE -32 -672 -32 -704
WIRE 16 -672 -32 -672
WIRE 64 -672 16 -672
WIRE -32 -608 -32 -672
WIRE 0 -608 -32 -608
WIRE 112 -608 112 -656
WIRE 112 -608 80 -608
WIRE -208 -576 -208 -608
WIRE 112 -576 112 -608
WIRE -400 -448 -512 -448
WIRE -336 -448 -400 -448
WIRE 112 -432 112 -496
WIRE 544 -432 112 -432
WIRE 624 -432 544 -432
WIRE -336 -416 -368 -416
WIRE -512 -368 -512 -448
WIRE 624 -352 624 -432
WIRE -208 -336 -208 -512
WIRE -512 -272 -512 -288
WIRE 624 -224 624 -272
WIRE 304 -64 176 -64
WIRE 624 -64 624 -144
WIRE 624 -64 304 -64
WIRE 176 48 176 -64
WIRE 304 48 304 -64
WIRE -368 160 -368 -416
WIRE 176 160 176 128
WIRE 176 160 -368 160
WIRE 176 176 176 160
WIRE 304 256 304 128
WIRE 176 272 176 256
FLAG 112 -912 Vplus
FLAG 544 -432 out_A
FLAG 112 -608 Sn1
FLAG 16 -672 Gn1
FLAG -400 -448 in
FLAG 176 272 0
FLAG 752 -848 0
FLAG 752 -1056 Vmin
FLAG 656 -1056 Vplus
FLAG -512 -272 0
FLAG 1280 -656 0
FLAG -208 -880 0
FLAG 304 256 0
FLAG -208 -336 0
SYMBOL EIT_Semiconductors\\npn -96 -800 R0
SYMATTR InstName T1
SYMATTR Value BC547B
SYMBOL res -16 -592 R270
WINDOW 0 25 56 VTop 0
WINDOW 3 7 56 VBottom 0
SYMATTR InstName R1
SYMATTR Value {Rbias}
SYMBOL res -224 -704 R0
SYMATTR InstName R3
SYMATTR Value 2k
SYMBOL diode -224 -576 R0
SYMATTR InstName D1
SYMATTR Value 1N4148
SYMBOL res 608 -240 R0
SYMATTR InstName Rload1
SYMATTR Value 2
SYMBOL res 96 -592 R0
SYMATTR InstName R5
SYMATTR Value 1µ
SYMBOL EIT_Semiconductors\\nmos 64 -752 R0
SYMATTR InstName M1
SYMATTR Value IRFP240
SYMBOL res 160 32 R0
SYMATTR InstName R7
SYMATTR Value 9k
SYMBOL res 160 160 R0
SYMATTR InstName R8
SYMATTR Value 100t
SYMBOL ind 608 -368 R0
SYMATTR InstName L1
SYMATTR Value 100µ
SYMBOL source-V 656 -1024 R0
WINDOW 123 0 0 Left 0
WINDOW 39 0 0 Left 0
WINDOW 3 -87 92 Left 0
SYMATTR Value {vsup}
SYMATTR InstName V1
SYMBOL source-V 752 -1024 R0
WINDOW 123 0 0 Left 0
WINDOW 39 0 0 Left 0
WINDOW 3 -72 98 Left 0
SYMATTR Value {-vsup}
SYMATTR InstName V2
SYMBOL source-V -512 -384 R0
WINDOW 123 0 0 Left 0
WINDOW 39 0 0 Left 0
WINDOW 3 -60 62 Left 0
SYMATTR Value 0
SYMATTR InstName V3
SYMBOL EIT_Semiconductors\\op_3 -304 -432 M180
WINDOW 123 -217 101 Left 0
WINDOW 3 -234 70 Left 0
SYMATTR Value Vp=20 Vm=-20 Ilim=20m
SYMATTR InstName U3
SYMBOL source-I -208 -784 R180
WINDOW 0 29 73 Left 0
WINDOW 3 -83 135 Left 0
WINDOW 123 0 0 Left 0
WINDOW 39 0 0 Left 0
SYMATTR InstName I1
SYMATTR Value 4m
SYMBOL res 288 32 R0
SYMATTR InstName R13
SYMATTR Value 0.1
TEXT 608 -664 Left 0 ;.temp 27 90
TEXT -352 -1264 Left 0 !.model npnx npn (Bf=200 Is={10m/exp(0.7/26m)}\n.model pnpx pnp (Bf=200 Is={10m/exp(0.7/26m)}\n.model Dx D (Is={(20*50u)/exp(0.7/26m)}
TEXT -88 -872 Left 0 ;4.27m
TEXT 616 -760 Left 0 !.tran 100m
TEXT 616 -704 Left 0 !.param vsup=25
TEXT 616 -728 Left 0 ;.step param vsup  list 25 12
TEXT -544 -592 Left 0 ;Vp=25 Vm=-25 Ilim=20m
TEXT -248 -1064 Left 0 !.param Rbias = 500
TEXT -200 -1016 Left 0 ;.step param Rbias 1 10k 1k
TEXT 536 -504 Left 0 ;.step param vsup 25 15 -1
RECTANGLE Normal -752 -1176 448 320 2
