Version 4
SHEET 1 1300 680
WIRE 656 -1008 656 -1056
WIRE 752 -1008 752 -1056
WIRE 656 -880 656 -928
WIRE 752 -880 752 -928
WIRE 752 -880 656 -880
WIRE -208 -864 -208 -880
WIRE 752 -848 752 -880
WIRE 112 -800 112 -912
WIRE 112 -800 -32 -800
WIRE -208 -752 -208 -784
WIRE -96 -752 -208 -752
WIRE 112 -752 112 -800
WIRE -208 -688 -208 -752
WIRE -32 -672 -32 -704
WIRE 16 -672 -32 -672
WIRE 64 -672 16 -672
WIRE -32 -608 -32 -672
WIRE 0 -608 -32 -608
WIRE 112 -608 112 -656
WIRE 112 -608 80 -608
WIRE -208 -576 -208 -608
WIRE 112 -576 112 -608
WIRE -400 -448 -512 -448
WIRE -336 -448 -400 -448
WIRE -208 -432 -208 -512
WIRE -208 -432 -272 -432
WIRE 112 -432 112 -496
WIRE 544 -432 112 -432
WIRE 624 -432 544 -432
WIRE -336 -416 -368 -416
WIRE 112 -384 112 -432
WIRE -512 -368 -512 -448
WIRE 624 -352 624 -432
WIRE -208 -336 -208 -432
WIRE -512 -272 -512 -288
WIRE 0 -272 -32 -272
WIRE 112 -272 112 -304
WIRE 112 -272 80 -272
WIRE -208 -240 -208 -272
WIRE 112 -240 112 -272
WIRE 112 -224 112 -240
WIRE 624 -224 624 -272
WIRE -32 -208 -32 -272
WIRE 32 -208 -32 -208
WIRE 64 -208 32 -208
WIRE -32 -176 -32 -208
WIRE -448 -160 -448 -176
WIRE -208 -128 -208 -160
WIRE -96 -128 -208 -128
WIRE -80 -128 -96 -128
WIRE -448 -112 -448 -160
WIRE -208 -80 -208 -128
WIRE 112 -80 112 -128
WIRE 112 -80 -32 -80
WIRE 304 -64 176 -64
WIRE 624 -64 624 -144
WIRE 624 -64 304 -64
WIRE -592 -48 -592 -80
WIRE 112 -48 112 -80
WIRE -480 0 -480 -48
WIRE -448 0 -448 -32
WIRE -448 0 -480 0
WIRE -208 32 -208 0
WIRE -592 48 -592 32
WIRE -544 48 -592 48
WIRE 176 48 176 -64
WIRE 304 48 304 -64
WIRE -592 96 -592 48
WIRE -480 128 -480 96
WIRE -480 128 -560 128
WIRE -480 160 -480 128
WIRE -368 160 -368 -416
WIRE 176 160 176 128
WIRE 176 160 -368 160
WIRE 176 176 176 160
WIRE -592 256 -592 160
WIRE -528 256 -592 256
WIRE -480 256 -480 240
WIRE -480 256 -528 256
WIRE 304 256 304 128
WIRE 176 272 176 256
FLAG 112 -912 Vplus
FLAG 112 -48 Vmin
FLAG 544 -432 out_A
FLAG 32 -208 Gp1
FLAG 112 -240 Sp1
FLAG 112 -608 Sn1
FLAG 16 -672 Gn1
FLAG -400 -448 in
FLAG 176 272 0
FLAG -592 -80 Vplus
FLAG -480 -48 IsinkOP
FLAG -528 256 Vmin
FLAG 752 -848 0
FLAG 752 -1056 Vmin
FLAG 656 -1056 Vplus
FLAG -512 -272 0
FLAG 1280 -656 0
FLAG -208 -880 0
FLAG -448 -160 vplus
FLAG -208 112 0
FLAG 304 256 0
SYMBOL EIT_Semiconductors\\npn -96 -800 R0
SYMATTR InstName T1
SYMATTR Value BC547B
SYMBOL EIT_Semiconductors\\pnp -96 -80 M180
SYMATTR InstName T2
SYMATTR Value BC327-40
SYMBOL res -16 -592 R270
WINDOW 0 25 56 VTop 0
WINDOW 3 7 56 VBottom 0
SYMATTR InstName R1
SYMATTR Value {Rbias}
SYMBOL res 96 -256 M270
WINDOW 0 25 56 VTop 0
WINDOW 3 7 56 VBottom 0
SYMATTR InstName R2
SYMATTR Value {Rbias}
SYMBOL res -224 -704 R0
SYMATTR InstName R3
SYMATTR Value 1k
SYMBOL res -224 -256 R0
SYMATTR InstName R4
SYMATTR Value 1k
SYMBOL diode -224 -576 R0
SYMATTR InstName D1
SYMATTR Value 1N4148
SYMBOL diode -224 -336 R0
SYMATTR InstName D2
SYMATTR Value 1N4148
SYMBOL res 608 -240 R0
SYMATTR InstName Rload1
SYMATTR Value 2
SYMBOL res 96 -592 R0
SYMATTR InstName R5
SYMATTR Value 1µ
SYMBOL res 96 -400 R0
SYMATTR InstName R6
SYMATTR Value 1µ
SYMBOL EIT_Semiconductors\\nmos 64 -752 R0
SYMATTR InstName M1
SYMATTR Value IRFP240
SYMBOL EIT_Semiconductors\\pmos 64 -128 M180
SYMATTR InstName M2
SYMATTR Value IRFP9240
SYMBOL res 160 32 R0
SYMATTR InstName R7
SYMATTR Value 9k
SYMBOL res 160 160 R0
SYMATTR InstName R8
SYMATTR Value 100t
SYMBOL ind 608 -368 R0
SYMATTR InstName L1
SYMATTR Value 100µ
SYMBOL TL431 -592 144 R180
SYMATTR InstName U1
SYMBOL res -576 -64 M0
SYMATTR InstName R9
SYMATTR Value 4.7k
SYMBOL EIT_Semiconductors\\npn -544 0 R0
SYMATTR InstName Q1
SYMATTR Value BC547B
SYMBOL res -496 144 R0
SYMATTR InstName R10
SYMATTR Value 613
SYMBOL source-V 656 -1024 R0
WINDOW 123 0 0 Left 0
WINDOW 39 0 0 Left 0
WINDOW 3 -87 92 Left 0
SYMATTR Value {vsup}
SYMATTR InstName V1
SYMBOL source-V 752 -1024 R0
WINDOW 123 0 0 Left 0
WINDOW 39 0 0 Left 0
WINDOW 3 -72 98 Left 0
SYMATTR Value {-vsup}
SYMATTR InstName V2
SYMBOL source-V -512 -384 R0
WINDOW 123 0 0 Left 0
WINDOW 39 0 0 Left 0
WINDOW 3 -233 150 Left 0
SYMATTR Value 0
SYMATTR InstName V3
SYMBOL res -224 -96 R0
SYMATTR InstName R11
SYMATTR Value 1m
SYMBOL EIT_Semiconductors\\op_3 -304 -432 M180
WINDOW 123 -217 101 Left 0
WINDOW 3 -234 70 Left 0
SYMATTR Value Vp=20 Vm=-20 Ilim=20m
SYMATTR InstName U3
SYMBOL source-I -208 -784 R180
WINDOW 0 29 73 Left 0
WINDOW 3 -83 135 Left 0
WINDOW 123 0 0 Left 0
WINDOW 39 0 0 Left 0
SYMATTR InstName I1
SYMATTR Value 4m
SYMBOL res -464 -128 R0
SYMATTR InstName R12
SYMATTR Value 300
SYMBOL source-I -208 112 R180
WINDOW 0 29 73 Left 0
WINDOW 3 -83 135 Left 0
WINDOW 123 0 0 Left 0
WINDOW 39 0 0 Left 0
SYMATTR InstName I2
SYMATTR Value 4m
SYMBOL res 288 32 R0
SYMATTR InstName R13
SYMATTR Value 0.1
TEXT 608 -664 Left 0 ;.temp 27 90
TEXT -352 -1264 Left 0 !.model npnx npn (Bf=200 Is={10m/exp(0.7/26m)}\n.model pnpx pnp (Bf=200 Is={10m/exp(0.7/26m)}\n.model Dx D (Is={(20*50u)/exp(0.7/26m)}
TEXT -88 -872 Left 0 ;4.27m
TEXT 616 -760 Left 0 !.dc V3 -0.1 0.1 0.01
TEXT 616 -704 Left 0 !.param vsup=25
TEXT 616 -728 Left 0 ;.step param vsup  list 25 12
TEXT -744 -200 Left 0 ;PULSE(-.5 .5 0 1m 1m 10m 23m)
TEXT -544 -592 Left 0 ;Vp=25 Vm=-25 Ilim=20m
TEXT -248 -1064 Left 0 !.param Rbias = 100
TEXT -200 -1016 Left 0 !.step param Rbias 1 10k 1k
TEXT -400 200 Left 0 ;310R
TEXT 536 -504 Left 0 ;.step param vsup 25 15 -1
RECTANGLE Normal -752 -1176 448 320 2
