Version 4
SHEET 1 2240 1604
WIRE 736 512 720 512
WIRE 784 512 768 512
WIRE 832 512 784 512
WIRE 960 512 880 512
WIRE 1008 512 960 512
WIRE 1120 512 1088 512
WIRE 1168 512 1120 512
WIRE 1248 512 1216 512
WIRE 1120 528 1120 512
WIRE 848 544 848 528
WIRE 848 560 848 544
WIRE 960 560 960 512
WIRE 1248 576 1248 512
WIRE 1120 624 1120 608
WIRE 1120 624 1104 624
WIRE 1120 640 1120 624
WIRE 960 672 960 624
WIRE 1120 720 1120 704
WIRE 1248 720 1248 656
FLAG 960 672 0
FLAG 784 512 Ve
FLAG 1120 720 0
FLAG 848 640 0
FLAG 848 544 fet
FLAG 960 512 s
FLAG 1120 512 A
FLAG 1248 720 0
FLAG 1104 624 ca
SYMBOL source-Vmarker 720 512 R0
SYMATTR Value V={Ve}
SYMATTR InstName U1
SYMBOL schottky 976 624 R180
WINDOW 0 -20 69 Left 2
WINDOW 3 7 -5 Right 2
SYMATTR InstName D1
SYMATTR Value MBRS140
SYMATTR Description Diode
SYMATTR Type diode
SYMBOL ind 992 528 R270
WINDOW 0 30 56 VTop 2
WINDOW 3 6 56 VBottom 2
SYMATTR InstName L1
SYMATTR Value {L1}
SYMATTR SpiceLine Rser=1n
SYMBOL cap 1104 640 R0
SYMATTR InstName Ca
SYMATTR Value {CA}
SYMBOL source-V 848 544 R0
WINDOW 3 -219 150 Left 2
WINDOW 123 0 0 Left 2
WINDOW 39 0 0 Left 2
WINDOW 0 -50 27 Left 2
SYMATTR Value PULSE(-1 1 0 1n 1n {pw*T} {T})
SYMATTR InstName V2
SYMBOL source-I 1248 656 M180
WINDOW 0 29 73 Left 2
WINDOW 3 29 17 Left 2
WINDOW 123 0 0 Left 2
WINDOW 39 29 -9 Left 2
SYMATTR InstName Ia
SYMATTR Value {Ia}
SYMATTR SpiceLine load
SYMBOL res 1104 512 R0
SYMATTR InstName Rser
SYMATTR Value 1µ
SYMBOL MDB_sym\\jumper 1200 448 R0
WINDOW 0 -7 50 Invisible 2
SYMATTR InstName X1
SYMBOL MDB_sym\\swMDBsingle 864 528 M270
WINDOW 0 36 20 VRight 2
SYMATTR InstName U2
SYMBOL MDB_sym\\isoR 752 512 R270
WINDOW 0 4 0 VTop 2
WINDOW 3 -28 -1 VTop 2
SYMATTR InstName R1
SYMATTR Value .1
TEXT 648 -96 Left 2 !.param T = 8us \n+ t2 = T;\n+ t1 = 0.75*T\n+ pw = {pwc}; t1/T\n+ Va = 5V\n;+ Va = {Vac}\n+ Ia = 1.5A\n+ CA = 47uF\n+ Vd0 = .5V\n+ T_load = 0\n+ Ve = 20V\n+ L1 = 20uH
TEXT 600 -248 Left 2 !.tran 0 15m {LAST*(15m-4*T)} \n.op
TEXT 1400 -408 Left 2 !; ---------------------------------------------------\n; Tastverhältniss\n; ---------------------------------------------------\n.MEAS TRAN t0 FIND time*1e6 WHEN I(L1)=I(I1) cross=1 TD=1u\n.MEAS TRAN t1 FIND time*1e6 WHEN I(L1)=I(I1) cross=2 TD=1u\n.MEAS TRAN t2 FIND time*1e6 WHEN I(L1)=I(I1) cross=3 TD=1u\n.MEAS TRAN trise FIND time WHEN I(L1)=I(I1) rise=1 TD=1u\n.MEAS TRAN tfall FIND time WHEN I(L1)=I(I1) fall=1 TD=1u\n \n.MEAS TRAN T PARAM round(t2-t0)\n.MEAS TRAN ton PARAM round(t1-t0)\n \n; ---------------------------------------------------\n; Rippelspannung berechnen\n; ---------------------------------------------------\n.MEAS TRAN area_ICa INTEG I(CA)\n+ TRIG I(CA)=0 RISE=1\n+ TARG I(CA)=0 FALL=1\n \n.MEAS TRAN vrip PARAM area_ICa/CA\n \n; ---------------------------------------------------\n; Rippelspannung direkt messen\n; ---------------------------------------------------\n.MEAS TRAN vpp pp V(A) \n+ TRIG time=0\n+ TARG time=300u\n \n; ---------------------------------------------------\n; ESR\n; ---------------------------------------------------\n.MEAS TRAN ILmax MAX I(L1) TD=10u\n.MEAS TRAN ILmin MIN I(L1) TD=10u\n.MEAS TRAN p1 FIND V(a,ca) WHEN I(L1)=ILmin fall=last\n.MEAS TRAN p2 FIND V(a,ca) WHEN I(L1)=ILmax rise=last\n.MEAS TRAN dVa PARAM abs(p2-p1)\n.MEAS TRAN dIL PARAM abs(ILmax-ILmin)\n.MEAS TRAN Rser PARAM dVa/dIL\n \n; ---------------------------------------------------\n; Model defines\n; ---------------------------------------------------\n.model swL SW(Ron=1m Roff=100Meg Vt=0 Vh=-.5 )\n.model swT SW(Ron=1m Roff=100meg Vt=0 Vh=-.5 )\n.model Dx D (Vfwd = {Vd0} Ron = 10m Roff 100meg)\n.model Dx2 D (Is={Ia/exp(Vd0/(1.1*26m))} N=1.1)
TEXT 656 624 Left 2 ;_Buckconverter\n_........................
TEXT 928 -656 Left 2 !; _Buckconverter\n; _........................\n; Spulen-Energie \n; EL = 0.5*L1*IL^2\n \n; Verlauf des Spulenstromes\n; ----------------------------------------\n; IL_on = (Ve-Va)/L1*time+IL01\n; IL_off = -(Va+Vd0)/L1*(t2-time)+IL02\n \n; Wenn eine stationäre Vca gefordert ist,\n; muss mittlerer Kondensatorstrom _IL=0A\n; gelten da sich die Vca sonst ändern würde\n \n; Tastverhältniss p\n; ----------------------------------------\n; p = t1/T  \n; Tastverhältniss p ergibt sich aus der dem\n; Verhältniss der on-zeit t1 und der Perioden-\n; dauer T\n \n; Relative Stromänderung \n; ----------------------------------------\n.param d_IL_on = {(Ve-Va)/L1*t1}\n; für 0<t<t1\n.param d_IL_off = {-(Va+Vd0)/L1*(t2-t1)}\n; für t1<t<t2 (T)\n \n; Wegen Vca=const. muss gelten:\n; ----------------------------------------\n; |d_IL_on| = |d_IL_off|\n \n; p = t1/T für t2 = T\n.param pwc = (Va+Vd0)/(Ve-Vd0)\n.param Vac = (Ve-Vd0)*t1/T-Vd0\n \n; Messungen\n; ----------------------------------------\n; .MEAS TRAN dtVa TIME\n; + TRIG MIN I(L1) cross=1\n; + TARG MAX I(L1) cross=1
TEXT 656 288 Left 2 !.param LAST = 0;
RECTANGLE Normal 1328 784 624 448 2
