Version 4
SHEET 1 880 680
WIRE 80 -32 32 -32
WIRE 192 -32 80 -32
WIRE 336 -32 192 -32
WIRE 336 -16 336 -32
WIRE 80 16 80 -32
WIRE 192 32 192 -32
WIRE 336 96 336 64
WIRE 384 96 336 96
WIRE 480 96 448 96
WIRE 496 96 480 96
WIRE 336 112 336 96
WIRE 80 128 80 96
WIRE 96 128 80 128
WIRE 192 128 192 112
WIRE 192 128 160 128
WIRE 192 160 192 128
WIRE 224 160 192 160
WIRE 272 160 224 160
WIRE 496 176 496 96
WIRE -144 192 -160 192
WIRE -32 192 -64 192
WIRE 80 192 80 128
WIRE 80 192 32 192
WIRE 192 192 192 160
WIRE 80 240 80 192
WIRE 96 240 80 240
WIRE 128 240 96 240
WIRE -160 256 -160 192
WIRE 80 288 80 240
WIRE 192 304 192 288
WIRE 192 320 192 304
WIRE 496 400 496 256
WIRE -160 416 -160 336
WIRE 80 416 80 368
WIRE 192 416 192 400
WIRE 336 416 336 208
FLAG 192 416 0
FLAG 336 416 0
FLAG 80 416 0
FLAG 224 160 b2
FLAG 192 304 e1
FLAG 96 240 b1
FLAG 336 96 e2
FLAG 496 400 0
FLAG 480 96 out
FLAG -160 416 0
SYMBOL EIT_Semiconductors\\npn 128 192 R0
SYMATTR InstName Q1
SYMATTR Value bc547b
SYMBOL EIT_Semiconductors\\pnp_o 272 112 R0
SYMATTR InstName Q2
SYMATTR Value bc557B
SYMBOL res 176 304 R0
SYMATTR InstName RE1
SYMATTR Value 1k
SYMBOL res 176 16 R0
SYMATTR InstName RC1
SYMATTR Value 10k
SYMBOL source-Vmarker 32 -32 R0
WINDOW 3 -62 2 Center 2
SYMATTR Value V=10V
SYMATTR InstName U1
SYMBOL res 64 0 R0
SYMATTR InstName R1
SYMATTR Value 270k
SYMBOL res 64 272 R0
SYMATTR InstName R2
SYMATTR Value 33k
SYMBOL res 320 -32 R0
SYMATTR InstName Re2
SYMATTR Value 1k
SYMBOL cap -32 208 R270
WINDOW 0 32 32 VTop 2
WINDOW 3 0 32 VBottom 2
SYMATTR InstName C1
SYMATTR Value 220n
SYMBOL cap 384 112 R270
WINDOW 0 32 32 VTop 2
WINDOW 3 0 32 VBottom 2
SYMATTR InstName C2
SYMATTR Value 1µ
SYMBOL res 480 160 R0
SYMATTR InstName RL
SYMATTR Value 1k
SYMBOL res -160 208 R270
WINDOW 0 25 56 VTop 2
WINDOW 3 7 56 VBottom 2
SYMATTR InstName RI
SYMATTR Value 10k
SYMBOL source-V -160 240 R0
SYMATTR InstName V1
SYMATTR Value AC 1
SYMBOL cap 160 112 R90
WINDOW 0 0 32 VBottom 2
WINDOW 3 32 32 VTop 2
SYMATTR InstName C3
SYMATTR Value 15p
TEXT -144 24 Left 2 !;op
TEXT -160 56 Left 2 !.ac oct 10 1 1meg
