Version 4
SHEET 1 880 680
WIRE 128 0 80 0
WIRE 368 0 128 0
WIRE 128 32 128 0
WIRE 368 112 368 80
WIRE 368 112 304 112
WIRE 400 112 368 112
WIRE 416 112 400 112
WIRE 512 112 480 112
WIRE 512 128 512 112
WIRE -96 144 -128 144
WIRE 0 144 -16 144
WIRE 128 144 128 112
WIRE 128 144 64 144
WIRE 128 160 128 144
WIRE 192 160 128 160
WIRE 240 160 192 160
WIRE -128 176 -128 144
WIRE 128 208 128 160
WIRE -128 304 -128 256
WIRE 128 304 128 288
WIRE 304 304 304 288
WIRE 512 304 512 288
FLAG 128 304 0
FLAG 304 304 0
FLAG 512 304 0
FLAG -128 304 0
FLAG 192 160 b
FLAG 400 112 c
FLAG 512 112 out
SYMBOL res 112 16 R0
SYMATTR InstName R3
SYMATTR Value 147.9k
SYMBOL res 112 192 R0
SYMATTR InstName R4
SYMATTR Value 22k
SYMBOL res 352 -16 R0
SYMATTR InstName RC
SYMATTR Value 5k
SYMBOL res 288 192 R0
SYMATTR InstName RE
SYMATTR Value 470
SYMBOL res 496 192 R0
SYMATTR InstName RL
SYMATTR Value 10k
SYMBOL res -112 160 R270
WINDOW 0 25 56 VTop 2
WINDOW 3 7 56 VBottom 2
SYMATTR InstName Ri
SYMATTR Value 10k
SYMBOL cap 0 160 R270
WINDOW 0 32 32 VTop 2
WINDOW 3 0 32 VBottom 2
SYMATTR InstName C1
SYMATTR Value 1µ
SYMBOL source-Vmarker 80 0 R0
SYMATTR Value V=9V
SYMATTR InstName U1
SYMBOL EIT_Semiconductors\\npn 240 112 R0
SYMATTR InstName Q1
SYMATTR Value NPNx
SYMBOL cap 416 128 R270
WINDOW 0 32 32 VTop 2
WINDOW 3 0 32 VBottom 2
SYMATTR InstName C2
SYMATTR Value 1µ
SYMBOL source-V 512 112 R0
SYMATTR InstName V1
SYMATTR Value AC 1
SYMBOL source-V -128 160 R0
SYMATTR InstName V2
SYMATTR Value 0
TEXT -96 -72 Left 2 !.model npnx npn (is={isx} BF=200 VAF=50)
TEXT -96 -96 Left 2 !.param isx=97f
TEXT -88 -168 Left 2 !;dc dec param isx 1f 1n 10
TEXT -96 -144 Left 2 !.ac dec 20 1 100k
TEXT -96 -200 Left 2 !;tran 2m
TEXT -88 -232 Left 2 !;op
