Version 4
SHEET 1 880 680
WIRE 352 -128 304 -128
WIRE 528 -128 352 -128
WIRE 176 -80 96 -80
WIRE 528 -80 528 -128
WIRE 96 -48 96 -80
WIRE 304 -48 304 -128
WIRE 240 0 176 0
WIRE 176 16 176 0
WIRE 528 32 528 0
WIRE 304 80 304 48
WIRE 176 128 176 96
WIRE 208 128 176 128
WIRE 240 128 208 128
WIRE 176 192 176 128
WIRE 304 192 304 176
WIRE 336 192 304 192
WIRE 352 192 336 192
WIRE 528 272 480 272
WIRE 560 272 528 272
WIRE 176 288 176 272
WIRE 256 288 176 288
WIRE 304 288 304 272
WIRE 304 288 256 288
WIRE 480 288 480 272
WIRE 176 304 176 288
WIRE 384 304 368 304
WIRE 400 304 384 304
WIRE 384 352 368 352
WIRE 400 352 384 352
WIRE 480 384 480 368
WIRE 176 400 176 384
FLAG 96 -48 0
FLAG 176 400 0
FLAG 256 288 minus
FLAG 208 128 b3
FLAG 528 32 0
FLAG 336 192 e3
FLAG 480 384 0
FLAG 528 272 diff
FLAG 384 304 b3
FLAG 384 352 e3
FLAG 352 -128 c3
SYMBOL res 160 -96 R0
SYMATTR InstName R1
SYMATTR Value 3.7k
SYMBOL res 160 176 R0
SYMATTR InstName R2
SYMATTR Value 4.7k
SYMBOL res 288 176 R0
SYMATTR InstName R3
SYMATTR Value 4.7k
SYMBOL EIT_Semiconductors\\npn 240 80 R0
SYMATTR InstName Q3
SYMATTR Value my_q
SYMBOL source-V 176 288 R0
SYMATTR InstName V1
SYMATTR Value -10.84V
SYMBOL source-V 528 -96 R0
SYMATTR InstName VC
SYMATTR Value 1
SYMBOL crtl-V-V 480 272 R0
SYMATTR InstName E1
SYMATTR Value 1
SYMBOL res 160 0 R0
SYMATTR InstName R4
SYMATTR Value 1k
SYMBOL EIT_Semiconductors\\npn 240 -48 R0
SYMATTR InstName Q1
SYMATTR Value my_q
TEXT 80 424 Left 2 !;op
TEXT 208 424 Left 2 !.dc VC -2 5 10m
TEXT 144 -176 Left 2 !.model my_q npn (IS=100f VAF={early} bf=200)
TEXT 184 -224 Left 2 !.param early=50V
TEXT 160 -256 Left 2 ;.step param early list 20 40 60 80 1t
