Version 4
SHEET 1 1072 680
WIRE 480 32 384 32
WIRE 128 48 64 48
WIRE 192 48 128 48
WIRE 304 48 192 48
WIRE 192 64 192 48
WIRE 64 96 64 48
WIRE 304 96 288 96
WIRE 288 112 288 96
WIRE 192 160 192 144
WIRE 272 160 192 160
WIRE 288 160 272 160
WIRE 384 160 352 160
WIRE 480 160 480 32
WIRE 480 160 384 160
WIRE 192 176 192 160
WIRE 64 208 64 160
WIRE 192 288 192 256
FLAG 192 288 0
FLAG 128 48 a
FLAG 272 160 b
FLAG 384 160 out
FLAG 288 112 0
FLAG 384 112 0
FLAG 64 208 0
SYMBOL res 176 48 R0
SYMATTR InstName R1
SYMATTR Value 1k
SYMBOL res 176 160 R0
SYMATTR InstName R2
SYMATTR Value 1k
SYMBOL cap 352 144 R90
WINDOW 0 0 32 VBottom 2
WINDOW 3 32 32 VTop 2
SYMATTR InstName C1
SYMATTR Value 1000n
SYMBOL cap 48 96 R0
SYMATTR InstName C2
SYMATTR Value 1n ic=1
SYMBOL crtl-V-V 384 16 R0
SYMATTR InstName E1
SYMATTR Value 1
TEXT 344 240 Left 2 !.tran 2m uic
TEXT 144 328 Left 2 ;Ra-gnd= 2kOhm + j*omega*100mH
TEXT 16 368 Left 2 ;fr=1/(2piWurzel(10nF*100mH))=5,033kHz
TEXT 24 400 Left 2 ;fr bleibt, wenn c2=1n und C1=1uF (L dann 1H)
