Version 4
SHEET 1 880 680
WIRE 352 -96 208 -96
WIRE 160 0 80 0
WIRE 304 0 224 0
WIRE 352 16 352 -96
WIRE 208 64 192 64
WIRE 224 64 208 64
WIRE -64 128 -96 128
WIRE -32 128 -64 128
WIRE 80 128 80 0
WIRE 96 128 80 128
WIRE 192 128 192 64
WIRE 192 128 176 128
WIRE 208 128 192 128
WIRE 304 128 304 0
WIRE 304 128 288 128
WIRE 352 128 352 96
WIRE 352 128 304 128
WIRE 384 128 352 128
WIRE 416 128 384 128
WIRE 496 128 480 128
WIRE 512 128 496 128
WIRE 352 144 352 128
WIRE -128 192 -160 192
WIRE -32 192 -32 128
WIRE -32 192 -48 192
WIRE -16 192 -32 192
WIRE 80 192 80 128
WIRE 80 192 48 192
WIRE 112 192 80 192
WIRE 288 192 112 192
WIRE 512 192 512 128
WIRE -160 224 -160 192
WIRE 352 256 352 240
WIRE -160 352 -160 304
WIRE 352 352 352 336
WIRE 512 352 512 272
FLAG 352 352 0
FLAG 512 352 0
FLAG -160 352 0
FLAG 112 192 b
FLAG 384 128 c
FLAG 496 128 out
FLAG 208 64 mid
FLAG -64 128 1x
SYMBOL res 192 112 R90
WINDOW 0 7 56 VBottom 2
WINDOW 3 25 56 VTop 2
SYMATTR InstName RX
SYMATTR Value {rx}
SYMBOL res 336 240 R0
SYMATTR InstName RE
SYMATTR Value 220
SYMBOL res 336 0 R0
SYMATTR InstName RC
SYMATTR Value 10k
SYMBOL source-Vmarker 208 -96 R0
SYMATTR Value V=9V
SYMATTR InstName U1
SYMBOL EIT_Semiconductors\\npn 288 144 R0
SYMATTR InstName Q1
SYMATTR Value my_npn
SYMBOL cap 416 144 R270
WINDOW 0 32 32 VTop 2
WINDOW 3 0 32 VBottom 2
SYMATTR InstName C2
SYMATTR Value 1µ
SYMBOL res 496 176 R0
SYMATTR InstName RL
SYMATTR Value 10k
SYMBOL cap -16 208 R270
WINDOW 0 32 32 VTop 2
WINDOW 3 0 32 VBottom 2
SYMATTR InstName C1
SYMATTR Value 220n
SYMBOL res -144 208 R270
WINDOW 0 25 56 VTop 2
WINDOW 3 7 56 VBottom 2
SYMATTR InstName R1
SYMATTR Value 15k
SYMBOL source-V -160 208 R0
SYMATTR InstName V1
SYMATTR Value AC 1
SYMBOL res 304 112 R90
WINDOW 0 7 56 VBottom 2
WINDOW 3 25 56 VTop 2
SYMATTR InstName RY
SYMATTR Value {560k-rx}
SYMBOL cap 224 -16 R90
WINDOW 0 0 32 VBottom 2
WINDOW 3 32 32 VTop 2
SYMATTR InstName C3
SYMATTR Value {cf}
TEXT -128 -144 Left 2 !.model my_npn npn (IS=3p BF=250 VAF=1T)
TEXT -120 24 Left 2 !;op
TEXT -144 64 Left 2 !.ac oct 10 1 10Meg
TEXT -136 -40 Left 2 !.param rx=27.6k cf=15p
TEXT -184 -72 Left 2 ;.step param cf list 0p 15p
