Version 4
SHEET 1 952 680
WIRE 672 -32 304 -32
WIRE 832 -32 672 -32
WIRE 304 -16 304 -32
WIRE 672 -16 672 -32
WIRE 832 0 832 -32
WIRE 304 96 304 64
WIRE 320 96 304 96
WIRE 352 96 320 96
WIRE 672 96 672 64
WIRE 672 96 624 96
WIRE 832 96 832 80
WIRE 304 112 304 96
WIRE 672 112 672 96
WIRE 32 160 0 160
WIRE 160 160 112 160
WIRE 192 160 160 160
WIRE 240 160 192 160
WIRE 432 160 240 160
WIRE 736 160 528 160
WIRE 816 160 736 160
WIRE 0 192 0 160
WIRE 160 192 160 160
WIRE 432 192 432 160
WIRE 528 192 528 160
WIRE 816 192 816 160
WIRE 304 240 304 208
WIRE 352 240 352 96
WIRE 368 240 352 240
WIRE 624 240 624 96
WIRE 624 240 592 240
WIRE 672 240 672 208
WIRE 0 288 0 272
WIRE 160 288 160 272
WIRE 816 304 816 272
WIRE 304 352 304 320
WIRE 672 352 672 320
WIRE 672 352 304 352
WIRE 432 384 432 288
WIRE 528 384 528 288
WIRE 528 384 432 384
WIRE 304 400 304 352
WIRE 528 400 528 384
WIRE 528 496 528 480
WIRE 304 512 304 480
FLAG 816 304 0
FLAG 160 288 0
FLAG 0 288 0
FLAG 832 96 0
FLAG 320 96 c1
FLAG 624 96 c2
FLAG 192 160 in
FLAG 304 512 0
FLAG 528 496 0
SYMBOL EIT_Semiconductors\\npn 240 112 R0
WINDOW 3 -40 98 Left 2
SYMATTR Value CA3046
SYMATTR InstName Q1
SYMBOL EIT_Semiconductors\\npn 736 112 M0
WINDOW 3 -45 106 Left 2
SYMATTR Value CA3046
SYMATTR InstName Q2
SYMBOL res 288 -32 R0
SYMATTR InstName RC1
SYMATTR Value 10k
SYMBOL res 656 -32 R0
SYMATTR InstName RC2
SYMATTR Value 10k
SYMBOL res 800 176 R0
SYMATTR InstName R1
SYMATTR Value 10
SYMBOL res 144 176 R0
SYMATTR InstName R2
SYMATTR Value 10
SYMBOL res 16 176 R270
WINDOW 0 25 56 VTop 2
WINDOW 3 7 56 VBottom 2
SYMATTR InstName R3
SYMATTR Value 40
SYMBOL source-V 0 176 R0
WINDOW 3 28 56 Left 2
WINDOW 123 0 0 Left 2
WINDOW 39 0 0 Left 2
SYMATTR Value 0
SYMATTR InstName V1
SYMBOL source-V 832 -16 R0
SYMATTR InstName Vplus
SYMATTR Value 10
SYMBOL res 288 224 R0
SYMATTR InstName RE1
SYMATTR Value {re}
SYMBOL res 656 224 R0
SYMATTR InstName RE2
SYMATTR Value {re}
SYMBOL source-I 304 480 R180
WINDOW 0 29 73 Left 2
WINDOW 3 29 17 Left 2
SYMATTR InstName I1
SYMATTR Value 1m
SYMBOL EIT_Semiconductors\\pnp_o 368 192 R0
WINDOW 3 47 61 Left 2
SYMATTR InstName Q3
SYMATTR Value PNPx
SYMBOL EIT_Semiconductors\\pnp_o 592 192 M0
WINDOW 3 41 59 Left 2
SYMATTR InstName Q5
SYMATTR Value PNPx
SYMBOL source-V 528 384 R0
SYMATTR InstName Vminus
SYMATTR Value -10.8
TEXT 24 24 Left 2 !.dc v1 -1 1 10m
TEXT 32 -24 Left 2 !.param re=10m
TEXT 24 -64 Left 2 !.step vplus 5 10 1
TEXT 360 -64 Left 2 !.model pnpx pnp (IS=10p)
