Version 4
SHEET 1 880 680
WIRE 240 16 192 16
WIRE 240 32 240 16
WIRE 240 160 240 112
WIRE 272 160 240 160
WIRE 288 160 272 160
WIRE 240 176 240 160
WIRE 64 224 32 224
WIRE 160 224 144 224
WIRE 176 224 160 224
WIRE 32 272 32 224
WIRE 240 288 240 272
WIRE 256 288 240 288
WIRE 288 288 256 288
WIRE 240 304 240 288
WIRE 32 416 32 352
WIRE 240 416 240 384
FLAG 240 416 0
FLAG 32 416 0
FLAG 160 224 bas
FLAG 32 224 in
FLAG 256 288 e
FLAG 272 160 coll
SYMBOL res 224 16 R0
SYMATTR InstName RC
SYMATTR Value 3.3k
SYMBOL res 48 240 R270
WINDOW 0 25 56 VTop 2
WINDOW 3 7 56 VBottom 2
SYMATTR InstName RB
SYMATTR Value 33k
SYMBOL res 224 288 R0
SYMATTR InstName RE
SYMATTR Value 1k
SYMBOL EIT_Semiconductors\\npn 176 176 R0
SYMATTR InstName Q1
SYMATTR Value BC547B
SYMBOL source-V 32 256 R0
SYMATTR InstName V1
SYMATTR Value 2V
SYMBOL source-Vmarker 192 16 R0
SYMATTR Value V=10V
SYMATTR InstName U1
TEXT 24 88 Left 2 !;op
TEXT 16 120 Left 2 !.dc v1 0 6 50m
