Version 4
SHEET 1 880 680
WIRE 448 -160 320 -160
WIRE 320 -144 320 -160
WIRE 448 -144 448 -160
WIRE 192 -80 176 -80
WIRE 288 -80 256 -80
WIRE 448 -48 448 -64
WIRE 176 0 176 -80
WIRE 192 0 176 0
WIRE 288 0 288 -80
WIRE 288 0 272 0
WIRE 320 0 320 -64
WIRE 320 0 288 0
WIRE 320 16 320 0
WIRE 352 16 320 16
WIRE 384 16 352 16
WIRE 480 16 448 16
WIRE 496 16 480 16
WIRE 320 32 320 16
WIRE 0 80 -16 80
WIRE 96 80 80 80
WIRE 176 80 176 0
WIRE 176 80 160 80
WIRE 208 80 176 80
WIRE 256 80 208 80
WIRE 496 112 496 16
WIRE -16 128 -16 80
WIRE 352 128 320 128
WIRE 368 128 352 128
WIRE 320 144 320 128
WIRE -16 240 -16 208
WIRE 320 240 320 224
WIRE 496 240 496 192
FLAG 320 240 0
FLAG -16 240 0
FLAG 496 240 0
FLAG 480 16 out
FLAG 352 16 c
FLAG 208 80 b
FLAG 352 128 e
FLAG 448 -48 0
SYMBOL EIT_Semiconductors\\npn 256 32 R0
WINDOW 3 58 59 Left 2
SYMATTR Value BC547B
SYMATTR InstName Q1
SYMBOL res 304 128 R0
WINDOW 3 -181 73 Left 2
WINDOW 0 -32 37 Left 2
SYMATTR Value {180-var*115.7}
SYMATTR InstName RE
SYMBOL res 288 -16 R90
WINDOW 0 7 56 VBottom 2
WINDOW 3 25 56 VTop 2
SYMATTR InstName RB
SYMATTR Value 560k
SYMBOL res 304 -160 R0
SYMATTR InstName RC
SYMATTR Value 5.6k
SYMBOL cap 96 96 R270
WINDOW 0 32 32 VTop 2
WINDOW 3 0 32 VBottom 2
SYMATTR InstName C1
SYMATTR Value 100n
SYMBOL res -16 96 R270
WINDOW 0 25 56 VTop 2
WINDOW 3 7 56 VBottom 2
SYMATTR InstName R1
SYMATTR Value 10k
SYMBOL source-V -16 112 R0
SYMATTR InstName V1
SYMATTR Value AC 1
SYMBOL res 512 96 M0
WINDOW 3 27 84 Left 2
SYMATTR InstName RL
SYMATTR Value {1k+var*9k}
SYMBOL Elko 384 32 R270
WINDOW 0 32 32 VTop 2
WINDOW 3 0 32 VBottom 2
SYMATTR InstName C2
SYMATTR Value {c2}
SYMBOL cap 256 -96 R90
WINDOW 0 0 32 VBottom 2
WINDOW 3 32 32 VTop 2
SYMATTR InstName C3
SYMATTR Value 10p
SYMBOL source-V 448 -160 R0
SYMATTR InstName Vplus
SYMATTR Value 8.36
TEXT 104 288 Left 2 !.model npnx npn (IS=1.8E-15 bf={beta})
TEXT 104 320 Left 2 !.param beta=200
TEXT -32 -104 Left 2 !;op
TEXT 104 352 Left 2 !.param var=0 c2=1u
TEXT -40 -136 Left 2 !;dc Vplus 0 15 0.1
TEXT -56 -64 Left 2 !.ac oct 10 1 10meg
TEXT -40 -168 Left 2 ;.step param var 0 1 1
TEXT -16 -216 Left 2 ;.step param c2 list 1n 10n 100n 1u 10u 100u 1000u
