Version 4
SHEET 1 880 680
WIRE -1200 -1776 -1296 -1776
WIRE -1040 -1776 -1200 -1776
WIRE -832 -1776 -1040 -1776
WIRE -80 -1776 -832 -1776
WIRE 192 -1776 -80 -1776
WIRE -1792 -1760 -1856 -1760
WIRE -1200 -1728 -1200 -1776
WIRE -1040 -1728 -1040 -1776
WIRE -832 -1728 -832 -1776
WIRE -1792 -1712 -1856 -1712
WIRE -1200 -1616 -1200 -1648
WIRE -1200 -1616 -1296 -1616
WIRE -1200 -1584 -1200 -1616
WIRE -1040 -1584 -1040 -1648
WIRE -832 -1584 -832 -1648
WIRE -976 -1536 -1136 -1536
WIRE -928 -1536 -976 -1536
WIRE -896 -1536 -928 -1536
WIRE -928 -1456 -928 -1536
WIRE -832 -1456 -832 -1488
WIRE -832 -1456 -928 -1456
WIRE -1200 -1440 -1200 -1488
WIRE -1040 -1440 -1040 -1488
WIRE -832 -1440 -832 -1456
WIRE -832 -1344 -832 -1360
WIRE -720 -1344 -832 -1344
WIRE -512 -1344 -720 -1344
WIRE -1248 -1200 -1472 -1200
WIRE -1200 -1200 -1200 -1440
WIRE -1200 -1200 -1248 -1200
WIRE -1472 -1152 -1472 -1200
WIRE -1248 -1152 -1248 -1200
WIRE -1200 -1152 -1200 -1200
WIRE -1248 -1056 -1248 -1072
WIRE -1200 -1056 -1200 -1072
WIRE -1200 -1056 -1248 -1056
WIRE -80 -1040 -80 -1776
WIRE -80 -1040 -176 -1040
WIRE -1472 -1024 -1472 -1072
WIRE -1248 -1024 -1248 -1056
WIRE -1040 -992 -1040 -1440
WIRE -368 -992 -1040 -992
WIRE -288 -992 -368 -992
WIRE -240 -992 -288 -992
WIRE -80 -992 -80 -1040
WIRE -1792 -976 -1936 -976
WIRE -1536 -976 -1792 -976
WIRE -1152 -976 -1184 -976
WIRE -288 -976 -288 -992
WIRE -144 -944 -176 -944
WIRE -368 -912 -368 -992
WIRE -1776 -896 -1792 -896
WIRE -1152 -896 -1152 -976
WIRE -1152 -896 -1776 -896
WIRE -288 -896 -288 -912
WIRE -80 -880 -80 -896
WIRE -288 -816 -288 -832
WIRE -1776 -784 -1776 -896
WIRE -80 -784 -80 -800
WIRE 176 -784 -80 -784
WIRE -80 -768 -80 -784
WIRE -1248 -736 -1248 -928
WIRE -944 -736 -1248 -736
WIRE -832 -736 -944 -736
WIRE -672 -736 -688 -736
WIRE -368 -736 -368 -832
WIRE -368 -736 -672 -736
WIRE -288 -736 -288 -752
WIRE -288 -736 -368 -736
WIRE -1472 -720 -1472 -928
WIRE -1376 -720 -1472 -720
WIRE -1472 -688 -1472 -720
WIRE -1248 -688 -1248 -736
WIRE -80 -672 -80 -688
WIRE -1776 -656 -1776 -704
WIRE -672 -656 -672 -736
WIRE -672 -656 -800 -656
WIRE -1376 -640 -1408 -640
WIRE -1312 -640 -1376 -640
WIRE -288 -624 -288 -736
WIRE -144 -624 -288 -624
WIRE -944 -608 -944 -736
WIRE -864 -608 -944 -608
WIRE -672 -576 -672 -656
WIRE -800 -528 -800 -560
WIRE -736 -528 -800 -528
WIRE -1472 -512 -1472 -592
WIRE -1472 -512 -1520 -512
WIRE -1456 -512 -1472 -512
WIRE -1360 -512 -1376 -512
WIRE -1248 -512 -1248 -592
WIRE -1248 -512 -1280 -512
WIRE -1200 -512 -1248 -512
WIRE -800 -480 -800 -528
WIRE -1520 -464 -1520 -512
WIRE -1472 -464 -1472 -512
WIRE -1376 -464 -1376 -512
WIRE -1248 -464 -1248 -512
WIRE -1200 -464 -1200 -512
WIRE -1520 -352 -1520 -384
WIRE -1472 -352 -1472 -384
WIRE -1472 -352 -1520 -352
WIRE -1376 -352 -1376 -384
WIRE -1376 -352 -1472 -352
WIRE -1248 -352 -1248 -384
WIRE -1248 -352 -1376 -352
WIRE -1200 -352 -1200 -384
WIRE -1200 -352 -1248 -352
WIRE -800 -352 -800 -400
WIRE -800 -352 -1200 -352
WIRE -672 -352 -672 -480
WIRE -672 -352 -800 -352
WIRE -512 -352 -512 -1344
WIRE -512 -352 -672 -352
WIRE -80 -352 -80 -576
WIRE -80 -352 -512 -352
WIRE 192 -352 -80 -352
FLAG -720 -1344 V-
FLAG -1200 -1440 c0
FLAG -1040 -1440 c1
FLAG -1792 -896 IN+
IOPIN -1792 -896 In
FLAG -1792 -976 IN-
IOPIN -1792 -976 In
FLAG -1792 -1760 V+
IOPIN -1792 -1760 Out
FLAG -1792 -1712 V-
IOPIN -1792 -1712 Out
FLAG 192 -1776 V+
IOPIN 192 -1776 In
FLAG 192 -352 V-
IOPIN 192 -352 In
FLAG 176 -784 out
IOPIN 176 -784 Out
FLAG -1936 -976 out
IOPIN -1936 -976 In
FLAG -1760 -672 0
FLAG -1776 -656 0
SYMBOL EIT_Semiconductors\\pnp -1136 -1488 R180
SYMATTR InstName Q1
SYMATTR Value CA3096_pnp
SYMBOL EIT_Semiconductors\\pnp -976 -1488 R180
SYMATTR InstName Q2
SYMATTR Value CA3096_pnp
SYMBOL EIT_Semiconductors\\pnp -896 -1488 M180
SYMATTR InstName Q3
SYMATTR Value CA3096_pnp
SYMBOL res -848 -1744 R0
SYMATTR InstName RE1
SYMATTR Value 1.2k
SYMBOL res -1056 -1744 R0
SYMATTR InstName RE2
SYMATTR Value 1.2k
SYMBOL res -1216 -1744 R0
SYMATTR InstName Re3
SYMATTR Value 33k
SYMBOL res -1280 -1712 M0
SYMATTR InstName Re4
SYMATTR Value 10k
SYMBOL res -848 -1456 R0
SYMATTR InstName Rref1
SYMATTR Value 39k
SYMBOL EIT_Semiconductors\\pnp -1184 -928 R180
WINDOW 3 77 0 Left 2
SYMATTR Value CA3096_pnp
SYMATTR InstName Q4
SYMBOL EIT_Semiconductors\\pnp -1536 -928 M180
WINDOW 3 75 75 Left 2
SYMATTR Value CA3096_pnp
SYMATTR InstName Q5
SYMBOL res -1488 -1168 R0
SYMATTR InstName RE5
SYMATTR Value 1.8k
SYMBOL res -1232 -1168 M0
SYMATTR InstName RE6
SYMATTR Value 1.8k
SYMBOL res -1216 -1168 R0
SYMATTR InstName JD2
SYMATTR Value {JD2}
SYMBOL EIT_Semiconductors\\npn -1408 -688 M0
SYMATTR InstName Q6
SYMATTR Value CA3046
SYMBOL EIT_Semiconductors\\npn -1312 -688 R0
SYMATTR InstName Q7
SYMATTR Value CA3046
SYMBOL res -1360 -528 R90
WINDOW 0 7 56 VBottom 2
WINDOW 3 -28 188 VTop 2
SYMATTR InstName Rpos1
SYMATTR Value {(1-off)*Ros}
SYMBOL res -1488 -480 R0
SYMATTR InstName J1
SYMATTR Value {J2}
SYMBOL res -1232 -480 M0
SYMATTR InstName J2
SYMATTR Value {J3}
SYMBOL res -1504 -480 M0
SYMATTR InstName RE7
SYMATTR Value 1k
SYMBOL res -1216 -480 R0
SYMATTR InstName RE8
SYMATTR Value 1k
SYMBOL res -1360 -624 R180
WINDOW 0 36 76 Left 2
WINDOW 3 36 40 Left 2
SYMATTR InstName J3
SYMATTR Value {J1}
SYMBOL res -1264 -528 R90
WINDOW 0 7 56 VBottom 2
WINDOW 3 -31 -76 VTop 2
SYMATTR InstName Rpos2
SYMATTR Value {off*Ros}
SYMBOL res -1392 -480 R0
SYMATTR InstName J4
SYMATTR Value {J4}
SYMBOL cap -688 -752 R90
WINDOW 0 0 32 VBottom 2
WINDOW 3 32 32 VTop 2
SYMATTR InstName Ccomp1
SYMATTR Value 33p
SYMBOL EIT_Semiconductors\\npn -736 -576 R0
SYMATTR InstName Q8
SYMATTR Value CA3046
SYMBOL EIT_Semiconductors\\npn -864 -656 R0
SYMATTR InstName Q9
SYMATTR Value CA3046
SYMBOL res -816 -496 R0
SYMATTR InstName RE9
SYMATTR Value 22k
SYMBOL EIT_Semiconductors\\npn -144 -992 R0
SYMATTR InstName Q10
SYMATTR Value CA3046
SYMBOL EIT_Semiconductors\\npn -240 -1040 R0
WINDOW 3 26 -24 Left 2
SYMATTR Value CA3046
SYMATTR InstName Q11
SYMBOL EIT_Semiconductors\\pnp -144 -576 M180
SYMATTR InstName Q12
SYMATTR Value CA3096_pnp
SYMBOL res -96 -896 R0
SYMATTR InstName RE10
SYMATTR Value 33
SYMBOL res -96 -784 R0
SYMATTR InstName RE11
SYMATTR Value 33
SYMBOL diode -304 -976 R0
WINDOW 0 53 26 Left 2
WINDOW 3 50 52 Left 2
SYMATTR InstName D1
SYMATTR Value 1N4148
SYMBOL res -352 -928 M0
SYMATTR InstName J6
SYMATTR Value {J7}
SYMBOL res -736 -752 R90
WINDOW 0 7 56 VBottom 2
WINDOW 3 25 56 VTop 2
SYMATTR InstName Rs1
SYMATTR Value 1
SYMBOL diode -304 -896 R0
WINDOW 0 53 26 Left 2
WINDOW 3 50 52 Left 2
SYMATTR InstName D2
SYMATTR Value 1N4148
SYMBOL diode -304 -816 R0
WINDOW 0 53 26 Left 2
WINDOW 3 50 52 Left 2
SYMATTR InstName D3
SYMATTR Value 1N4148
SYMBOL res -1312 -1792 R0
SYMATTR InstName J7
SYMATTR Value {J10}
SYMBOL source-Vmarker -1856 -1760 R0
SYMATTR Value V=10V
SYMATTR InstName U1
SYMBOL source-Vmarker -1856 -1712 R0
SYMATTR Value V=-10V
SYMATTR InstName U2
SYMBOL source-V -1776 -800 R0
WINDOW 3 -250 187 Left 2
WINDOW 123 0 0 Left 2
WINDOW 39 0 0 Left 2
SYMATTR Value PULSE(-5 5 0 10n 10n {1/(2*fin)} {1/(fin)})
SYMATTR InstName V1
TEXT -1408 -1376 Left 2 ;Stromquellen-\nBank
TEXT -1592 -1248 Left 2 ;PNP-\nDiff. stufe
TEXT -1576 -320 Left 2 ;Stromspiegel
TEXT -1024 -320 Left 2 ;Darlington- Stufe
TEXT -432 -320 Left 2 ;Endstufe
TEXT -432 -1680 Left 2 !.param open = 100meg\n.param close = 1u\n.param JD1 = CLOSE\n.param JD2 = CLOSE\n.param J1 = CLOSE\n.param J2 = OPEN\n.param J3 = OPEN\n.param J4 = CLOSE\n.param J5 = CLOSE\n.param J7 = OPEN\n.param J10 = CLOSE\n \n.param Ros = 1k\n.param off = 0.5
TEXT -976 -904 Left 2 !.model npnA npn (Is=9.7e-15 Bf=300)\n.model pnpB pnp (Is=9.7e-15 Bf=300)
TEXT -1944 -1296 Left 2 !.tran {2/fin}
TEXT -1952 -1224 Left 2 !.param fin=25k
TEXT -896 -1160 Left 2 ;.step param J10 list 10t 1u
RECTANGLE Normal -656 -1312 -1440 -1824 2
RECTANGLE Normal -1120 -864 -1632 -1280 2
RECTANGLE Normal -1120 -288 -1632 -832 2
RECTANGLE Normal -560 -288 -1040 -784 2
RECTANGLE Normal 48 -288 -448 -1088 2
RECTANGLE Normal 96 -240 -1680 -1856 1
