Version 4
SHEET 1 6588 2628
WIRE 1680 112 1664 112
WIRE 1696 112 1680 112
WIRE 1856 112 1840 112
WIRE 1872 112 1856 112
WIRE 1680 160 1664 160
WIRE 1696 160 1680 160
WIRE 1856 160 1840 160
WIRE 1872 160 1856 160
WIRE 1344 240 512 240
WIRE 656 384 624 384
WIRE 768 384 656 384
WIRE 896 384 768 384
WIRE 1040 384 896 384
WIRE 1168 384 1040 384
WIRE 1696 384 1664 384
WIRE 1824 384 1696 384
WIRE 1968 384 1824 384
WIRE 2080 384 1968 384
WIRE 2144 384 2080 384
WIRE 2272 384 2144 384
WIRE 768 448 768 384
WIRE 1040 448 1040 384
WIRE 1968 448 1968 384
WIRE 2144 448 2144 384
WIRE 1824 480 1824 384
WIRE 864 496 832 496
WIRE 976 496 864 496
WIRE 2048 496 2032 496
WIRE 2080 496 2048 496
WIRE 768 576 768 544
WIRE 864 576 864 496
WIRE 864 576 768 576
WIRE 1968 576 1968 544
WIRE 2048 576 2048 496
WIRE 2048 576 1968 576
WIRE 1168 592 1168 384
WIRE 2272 592 2272 384
WIRE 1040 640 1040 544
WIRE 1104 640 1040 640
WIRE 2144 640 2144 544
WIRE 2208 640 2144 640
WIRE 512 656 512 240
WIRE 544 656 512 656
WIRE 656 656 624 656
WIRE 976 656 656 656
WIRE 1584 704 1552 704
WIRE 1696 704 1664 704
WIRE 2032 704 1696 704
WIRE 768 736 768 576
WIRE 880 736 880 704
WIRE 1968 736 1968 576
WIRE 480 784 464 784
WIRE 512 784 480 784
WIRE 640 784 592 784
WIRE 704 784 640 784
WIRE 976 784 976 656
WIRE 976 784 944 784
WIRE 1168 784 1168 688
WIRE 1280 784 1168 784
WIRE 1344 784 1344 240
WIRE 1344 784 1280 784
WIRE 1824 784 1824 560
WIRE 1904 784 1824 784
WIRE 2272 784 2272 688
WIRE 2384 784 2272 784
WIRE 2432 784 2384 784
WIRE 1824 800 1824 784
WIRE 464 832 464 784
WIRE 1552 848 1536 848
WIRE 1584 848 1552 848
WIRE 1696 848 1664 848
WIRE 1760 848 1696 848
WIRE 1968 848 1968 832
WIRE 2032 848 2032 704
WIRE 2032 848 1968 848
WIRE 768 880 768 832
WIRE 880 880 880 832
WIRE 880 880 768 880
WIRE 1968 880 1968 848
WIRE 464 944 464 912
WIRE 768 944 768 880
WIRE 880 944 880 880
WIRE 1040 944 1040 640
WIRE 1168 944 1168 784
WIRE 1968 944 1968 912
WIRE 2144 944 2144 640
WIRE 2272 944 2272 784
WIRE 656 1072 624 1072
WIRE 768 1072 768 1024
WIRE 768 1072 656 1072
WIRE 880 1072 880 1024
WIRE 880 1072 768 1072
WIRE 1040 1072 1040 1024
WIRE 1040 1072 880 1072
WIRE 1168 1072 1168 1024
WIRE 1168 1072 1040 1072
WIRE 1696 1072 1680 1072
WIRE 1824 1072 1824 896
WIRE 1824 1072 1696 1072
WIRE 1968 1072 1968 1024
WIRE 1968 1072 1824 1072
WIRE 2080 1072 1968 1072
WIRE 2144 1072 2144 1024
WIRE 2144 1072 2080 1072
WIRE 2272 1072 2272 1024
WIRE 2272 1072 2144 1072
WIRE 720 1184 720 1168
WIRE 720 1216 720 1184
WIRE 1040 1248 1040 1216
WIRE 720 1312 720 1296
WIRE 544 1360 528 1360
WIRE 656 1360 624 1360
WIRE 1456 1360 1328 1360
WIRE 976 1376 944 1376
WIRE 1328 1408 1328 1360
WIRE 1456 1408 1456 1360
WIRE 1328 1520 1328 1488
WIRE 1456 1520 1456 1488
WIRE 720 1552 720 1408
WIRE 1040 1568 1040 1424
FLAG 896 384 V+
FLAG 880 1072 V-
FLAG 880 704 V+
FLAG 656 656 in-
FLAG 640 784 in+
FLAG 1280 784 col
FLAG 2080 384 V+
FLAG 2384 784 col2
FLAG 1680 112 V+
FLAG 1680 160 V-
FLAG 1696 848 in2+
FLAG 2080 1072 V-
FLAG 1696 1072 V-
FLAG 1696 384 V+
FLAG 656 1072 V-
FLAG 1696 704 in2-
FLAG 656 384 V+
FLAG 464 944 0
FLAG 1856 112 +5V+
FLAG 1856 160 -5V
FLAG 1040 1216 0
FLAG 1040 1568 0
FLAG 864 1376 V+
FLAG 1328 1520 0
FLAG 1456 1520 0
FLAG 720 1552 0
FLAG 528 1360 0
FLAG 720 1184 V+
FLAG 480 784 sig
FLAG 1552 848 sig
SYMBOL EIT_Semiconductors\\npn 704 736 R0
SYMATTR InstName Q1
SYMATTR Value NPNx
SYMBOL EIT_Semiconductors\\npn 944 736 M0
SYMATTR InstName Q2
SYMATTR Value NPNx
SYMBOL EIT_Semiconductors\\pnp 832 544 R180
SYMATTR InstName Q3
SYMATTR Value PNPx
SYMBOL EIT_Semiconductors\\pnp 976 544 M180
SYMATTR InstName Q4
SYMATTR Value PNPx
SYMBOL EIT_Semiconductors\\npn 1104 592 R0
SYMATTR InstName Q5
SYMATTR Value NPNx
SYMBOL source-I 768 1024 R180
WINDOW 0 29 73 Left 2
WINDOW 3 29 17 Left 2
WINDOW 123 0 0 Left 2
WINDOW 39 0 0 Left 2
SYMATTR InstName I1
SYMATTR Value {I0}
SYMBOL source-I 880 1024 R180
WINDOW 0 29 73 Left 2
WINDOW 3 29 17 Left 2
WINDOW 123 0 0 Left 2
WINDOW 39 0 0 Left 2
SYMATTR InstName I2
SYMATTR Value {I0}
SYMBOL source-I 1040 1024 R180
WINDOW 0 29 73 Left 2
WINDOW 3 29 17 Left 2
WINDOW 123 0 0 Left 2
WINDOW 39 0 0 Left 2
SYMATTR InstName I3
SYMATTR Value {I0}
SYMBOL source-I 1168 1024 R180
WINDOW 0 29 73 Left 2
WINDOW 3 29 17 Left 2
WINDOW 123 0 0 Left 2
WINDOW 39 0 0 Left 2
SYMATTR InstName I4
SYMATTR Value {I0}
SYMBOL EIT_Semiconductors\\npn 1904 736 R0
SYMATTR InstName Q6
SYMATTR Value NPNx
SYMBOL EIT_Semiconductors\\pnp 2032 544 R180
SYMATTR InstName Q8
SYMATTR Value PNPx
SYMBOL EIT_Semiconductors\\pnp 2080 544 M180
SYMATTR InstName Q9
SYMATTR Value PNPx
SYMBOL EIT_Semiconductors\\npn 2208 592 R0
SYMATTR InstName Q10
SYMATTR Value NPNx
SYMBOL source-I 1968 1024 R180
WINDOW 0 29 73 Left 2
WINDOW 3 29 17 Left 2
SYMATTR InstName I5
SYMATTR Value {I0}
SYMBOL source-I 2144 1024 R180
WINDOW 0 29 73 Left 2
WINDOW 3 29 17 Left 2
WINDOW 123 0 0 Left 2
WINDOW 39 0 0 Left 2
SYMATTR InstName I7
SYMATTR Value {I0}
SYMBOL source-I 2272 1024 R180
WINDOW 0 29 73 Left 2
WINDOW 3 29 17 Left 2
WINDOW 123 0 0 Left 2
WINDOW 39 0 0 Left 2
SYMATTR InstName I8
SYMATTR Value {I0}
SYMBOL source-Vmarker 1664 112 R0
SYMATTR Value V=15V
SYMATTR InstName U3
SYMBOL source-Vmarker 1664 160 R0
SYMATTR Value V=-15V
SYMATTR InstName U4
SYMBOL EIT_Semiconductors\\pnp 1760 896 M180
SYMATTR InstName Q7
SYMATTR Value PNPx
SYMBOL source-I 1824 560 R180
WINDOW 0 29 73 Left 2
WINDOW 3 29 17 Left 2
WINDOW 123 0 0 Left 2
WINDOW 39 0 0 Left 2
SYMATTR InstName I6
SYMATTR Value {I0}
SYMBOL source-V 464 816 R0
WINDOW 123 0 0 Left 2
WINDOW 39 0 0 Left 2
SYMATTR InstName V1
SYMATTR Value SINE(0 {.1} 1k)
SYMBOL res 496 768 M90
WINDOW 0 0 56 VBottom 2
WINDOW 3 32 56 VTop 2
SYMATTR InstName R3
SYMATTR Value 1µ
SYMBOL source-Vmarker 1840 112 R0
SYMATTR InstName U1
SYMBOL source-Vmarker 1840 160 R0
SYMATTR Value V=-5V
SYMATTR InstName U2
SYMBOL EIT_Semiconductors\\npn 976 1328 R0
SYMATTR InstName Q11
SYMATTR Value NPNx
SYMBOL source-I 1040 1328 R180
WINDOW 0 29 73 Left 2
WINDOW 3 29 17 Left 2
WINDOW 123 0 0 Left 2
WINDOW 39 0 0 Left 2
SYMATTR InstName I9
SYMATTR Value {I0}
SYMBOL res 960 1360 R90
WINDOW 0 0 56 VBottom 2
WINDOW 3 32 56 VTop 2
SYMATTR InstName R4
SYMATTR Value 1k
SYMBOL source-I 1328 1408 M0
WINDOW 0 29 73 Left 2
WINDOW 3 -77 153 Left 2
WINDOW 123 0 0 Left 2
WINDOW 39 0 0 Left 2
SYMATTR InstName Iss
SYMATTR Value {I0/exp(Ueb/VT)}
SYMBOL res 1440 1392 R0
SYMATTR InstName R5
SYMATTR Value 1
SYMBOL EIT_Semiconductors\\npn 656 1312 R0
SYMATTR InstName Q12
SYMATTR Value NPNx
SYMBOL source-I 624 1360 R90
WINDOW 0 -54 35 VRight 2
WINDOW 3 59 17 VRight 2
WINDOW 123 0 0 Left 2
WINDOW 39 0 0 Left 2
SYMATTR InstName I11
SYMATTR Value 5µ
SYMBOL res 704 1200 R0
SYMATTR InstName R6
SYMATTR Value 1µ
SYMBOL res 528 640 M90
WINDOW 0 0 56 VBottom 2
WINDOW 3 32 56 VTop 2
SYMATTR InstName R7
SYMATTR Value 1µ
SYMBOL res 1568 688 M90
WINDOW 0 0 56 VBottom 2
WINDOW 3 32 56 VTop 2
SYMATTR InstName R1
SYMATTR Value 1µ
SYMBOL res 1568 832 M90
WINDOW 0 0 56 VBottom 2
WINDOW 3 32 56 VTop 2
SYMATTR InstName R2
SYMATTR Value 1µ
SYMBOL EIT_Semiconductors\\op_3 1632 960 R0
SYMATTR InstName U6
SYMBOL arrow_curr 1968 896 R90
SYMATTR InstName U5
TEXT 1248 32 Left 2 !.param I0 = 1mA\n.param Ube = 0.65V\n.param Ueb = {Ube}\n.param beta = 350
TEXT 1816 336 Left 3 ;CV
TEXT 1872 336 Left 2 ;TIA - Transimpedanceamplifier
TEXT 744 328 Left 3 ;VV
TEXT 624 88 Left 2 !.model NPNx NPN (Is={I0/exp(Ube/VT)} Bf = {beta})\n.model PNPx PNP (Is={I0/exp(Ueb/VT)} Bf = {beta})
TEXT 1528 32 Left 2 !.param open = 1t\n.param close = 1u
TEXT 504 80 Left 2 !.tran 2m
TEXT 704 -304 Left 2 ;.model PNPx PNP(IS=3.83E-14 NF=1.008 ISE=1.22E-14 NE=1.528 BF=344.4 IKF=0.08039 VAF=21.11 NR=1.005 \n+ISC=2.85E-13 NC=1.28 BR=14.84 IKR=0.047 VAR=32.02 RB=1 IRB=1.00E-06 RBM=1 RE=0.6202 RC=0.5713 XTB=0 \n+EG=1.11 XTI=3 CJE=1.23E-11 VJE=0.6106 MJE=0.378 TF=5.60E-10 XTF=3.414 VTF=5.23 ITF=0.1483 PTF=0 \n+CJC=1.08E-11 VJC=0.1022 MJC=0.3563 XCJC=0.6288 TR=1.00E-32 CJS=0 VJS=0.75 MJS=0.333 FC=0.8027 \n+Vceo=45 Icrating=100m mfg=Philips)\n.model NPNx NPN(IS=2.39E-14 NF=1.008 ISE=3.545E-15 NE=1.541 BF=294.3 IKF=0.1357 VAF=63.2 NR=1.004 \n+ISC=6.272E-14 NC=1.243 BR=7.946 IKR=0.1144 VAR=25.9 RB=1 IRB=1.00E-06 RBM=1 RE=0.4683 RC=0.85 \n+XTB=0 EG=1.11 XTI=3 CJE=1.358E-11 VJE=0.65 MJE=0.3279 TF=4.391E-10 XTF=120 VTF=2.643 ITF=0.7495 \n+PTF=0 CJC=3.728E-12 VJC=0.3997 MJC=0.2955 XCJC=0.6193 TR=1.00E-32 CJS=0 VJS=0.75 MJS=0.333 \n+FC=0.9579 Vceo=45 Icrating=100m mfg=Philips)
TEXT 1296 1240 Left 2 ;.step param TEMP 25 80 2
TEXT 1936 56 Left 2 !.param boltz = 1.38e-23\n.param Theta = {273+TEMP}\n.param eq = 1.602e-19As\n.param VT={boltz*Theta/eq}
TEXT 1976 616 Left 2 ;I0+Iq
TEXT 704 608 Left 2 ;I0+Iq
TEXT 976 600 Left 2 ;I0+Iq
TEXT 808 856 Left 2 ;Iq
RECTANGLE Normal 1248 1120 688 304 2
RECTANGLE Normal 2336 1120 1728 304 2
