Version 4
SHEET 1 6880 976
WIRE 336 -48 256 -48
WIRE 336 0 256 0
WIRE 112 144 112 128
WIRE 400 144 112 144
WIRE 400 176 400 144
WIRE 112 208 112 144
WIRE 400 304 400 256
WIRE 112 320 112 288
WIRE 240 320 112 320
WIRE 112 368 112 320
WIRE 400 368 400 304
WIRE 240 416 240 320
WIRE 240 416 176 416
WIRE 336 416 240 416
WIRE 576 480 576 416
WIRE 112 512 112 464
WIRE 400 528 400 464
WIRE 512 528 400 528
WIRE 112 656 112 592
WIRE 240 656 112 656
WIRE 112 704 112 656
WIRE 400 704 400 528
WIRE 576 704 576 576
WIRE 240 752 240 656
WIRE 240 752 176 752
WIRE 336 752 240 752
WIRE 512 752 336 752
WIRE 112 864 112 800
WIRE 208 864 112 864
WIRE 400 864 400 800
WIRE 400 864 208 864
WIRE 576 864 576 800
WIRE 576 864 400 864
FLAG 208 864 V-
FLAG 112 128 V+
FLAG 400 304 outd
FLAG 336 -48 V+
FLAG 336 0 V-
SYMBOL npn 336 704 R0
SYMATTR InstName Q1
SYMATTR Value npnx
SYMBOL npn 176 704 M0
SYMATTR InstName Q2
SYMATTR Value npnx
SYMBOL npn 336 368 R0
SYMATTR InstName Q3
SYMATTR Value npnx
SYMBOL npn 176 368 M0
SYMATTR InstName Q4
SYMATTR Value npnx
SYMBOL res 384 160 R0
SYMATTR InstName Rm1
SYMATTR Value 1k
SYMBOL res 96 192 R0
SYMATTR InstName R1
SYMATTR Value 1k
SYMBOL res 128 496 M0
SYMATTR InstName Rset1
SYMATTR Value {Rset}
SYMBOL npn 512 480 R0
SYMATTR InstName Q5
SYMATTR Value npnx
SYMBOL npn 512 704 R0
SYMATTR InstName Q6
SYMATTR Value npnx
SYMBOL source-Vmarker 256 -48 R0
SYMATTR Value V=30V
SYMATTR InstName U1
SYMBOL source-Vmarker 256 0 R0
SYMATTR Value V=-30V
SYMATTR InstName U2
TEXT 152 912 Left 2 ;Doppel- Kaskode- Stromspiegel\nTietze S. 320
TEXT 168 64 Left 2 !.step param Rset 1k 80k 1k
TEXT 480 -56 Left 2 !.param Re = 1n\n.param bias = 1500\n.param Rset = 57600
TEXT 496 56 Left 2 !.param I0 =1m
TEXT 760 208 Left 2 ;.model pnpx PNP(IS=2.014E-14 NF=0.9974 ISE=6.578E-15 NE=1.45 BF=315.3 IKF=0.079 VAF=39.15 NR=0.9952 ISC=1.633E-14 NC=1.15 BR=8.68 IKR=0.09 VAR=9.5 RB=10 IRB=5.00E-06 RBM=5.00E-06 RE=0.663 RC=0.718 CJE=1.135E-11 VJE=0.7071 MJE=0.3808 TF=6.546E-10 XTF=5.387 VTF=6.245 ITF=0.2108 PTF=0 CJC=6.395E-12 VJC=0.4951 MJC=0.44 XCJC=0.6288 TR=5.50E-08 CJS=0 VJS=0.75 MJS=0.333 XTB=0 XTI=3 EG=1.11 FC=0.9059 Vceo=45 Icrating=100m mfg=Philips)\n.model npnx NPN(IS=1.822E-14 NF=0.9932 ISE=2.894E-16 NE=1.4 BF=324.4 IKF=0.109 VAF=82 NR=0.9931 ISC=9.982E-12 NC=1.763 BR=8.29 IKR=0.09 VAR=17.9 RB=10 IRB=5.00E-06 RBM=5 RE=0.649 RC=0.7014 XTB=0 EG=1.11 XTI=3 CJE=1.244E-11 VJE=0.7579 MJE=0.3656 TF=4.908E-10 XTF=9.51 VTF=2.927 ITF=0.3131 PTF=0 CJC=3.347E-12 VJC=0.5463 MJC=0.391 XCJC=0.6193 TR=9.00E-08 CJS=0 VJS=0.75 MJS=0.333 FC=0.979 Vceo=45 Icrating=100m mfg=Philips)
TEXT 816 344 Left 2 !.model npnx npn(Is={I0/exp(0.7/26m)}  Bf=200)\n.model pnpx pnp(Is={I0/exp(0.7/26m)}  Bf=200)
TEXT 12 960 Left 2 !.op
