Version 4
SHEET 1 880 1760
WIRE -2160 -432 -2176 -432
WIRE -2144 -432 -2160 -432
WIRE -2080 -208 -2080 -240
WIRE -1632 -208 -1632 -240
WIRE -1632 -128 -1632 -144
WIRE -1168 -112 -1168 -144
WIRE -2224 -96 -2256 -96
WIRE -2080 -96 -2080 -144
WIRE -2080 -96 -2160 -96
WIRE -2080 -80 -2080 -96
WIRE -2256 -64 -2256 -96
WIRE -1632 -48 -1632 -64
WIRE -1280 -48 -1280 -64
WIRE -1344 -16 -1344 -64
WIRE -2080 32 -2080 0
WIRE -2000 32 -2080 32
WIRE -2000 48 -2000 32
WIRE -1168 64 -1168 -48
WIRE -2256 80 -2256 16
WIRE -1632 80 -1632 16
WIRE -1280 80 -1280 16
WIRE -1456 96 -1504 96
WIRE -1344 96 -1344 64
WIRE -1344 96 -1376 96
WIRE -1312 96 -1344 96
WIRE -2080 112 -2080 32
WIRE -1632 112 -1632 80
WIRE -1232 112 -1248 112
WIRE -1312 128 -1344 128
WIRE -2000 144 -2000 128
WIRE -1776 144 -2000 144
WIRE -1696 160 -1712 160
WIRE -1280 160 -1280 144
WIRE -2000 176 -2000 144
WIRE -1776 176 -1808 176
WIRE -1744 208 -1744 192
WIRE -1456 208 -1472 208
WIRE -1344 208 -1344 128
WIRE -1344 208 -1376 208
WIRE -1312 208 -1344 208
WIRE -1168 208 -1168 160
WIRE -1168 208 -1232 208
WIRE -1168 224 -1168 208
WIRE -1808 256 -1808 176
WIRE -1760 256 -1808 256
WIRE -1632 256 -1632 208
WIRE -1632 256 -1680 256
WIRE -2080 272 -2080 176
WIRE -2000 272 -2000 256
WIRE -1632 272 -1632 256
WIRE -1168 320 -1168 304
WIRE -1632 368 -1632 352
FLAG -2000 272 0
FLAG -2080 272 0
FLAG -2080 -240 V+
FLAG -2160 -432 V+
FLAG -2176 -304 0
FLAG -1168 320 0
FLAG -1280 -64 0
FLAG -1344 -64 0
FLAG -1472 208 0
FLAG -1168 -144 0
FLAG -1504 96 0
FLAG -1280 160 0
FLAG -1632 368 0
FLAG -1744 128 0
FLAG -1744 208 V+
FLAG -1632 80 R
FLAG -1632 -240 V+
FLAG -2256 80 0
SYMBOL source-Vmarker -2176 -432 R0
SYMATTR Value V=20V
SYMATTR InstName U2
SYMBOL res -2016 32 R0
WINDOW 3 151 67 Right 2
SYMATTR Value {RpotNot}
SYMATTR InstName R7
SYMBOL res -2016 160 R0
WINDOW 3 107 68 Right 2
SYMATTR Value {Rpot}
SYMATTR InstName R8
SYMBOL diode -2064 176 R180
WINDOW 0 24 64 Left 2
WINDOW 3 24 0 Left 2
SYMATTR InstName D4
SYMATTR Value 1Nselber
SYMBOL res -2096 -96 R0
SYMATTR InstName R9
SYMATTR Value 4.7k
SYMBOL EIT_Semiconductors\\npn -1232 64 R0
SYMATTR InstName Q1
SYMATTR Value PXT4401
SYMBOL res -1184 208 R0
SYMATTR InstName R1
SYMATTR Value {Riu}
SYMBOL EXTRA\\ExtraOpamps\\LM358_NS -1280 112 M180
WINDOW 3 -81 193 Left 2
SYMATTR InstName U1
SYMBOL LED -1184 -112 R0
SYMATTR InstName D1
SYMATTR Value NSCW100
SYMATTR Description Diode
SYMATTR Type diode
SYMBOL diode -1296 16 M180
WINDOW 0 24 64 Left 2
WINDOW 3 24 0 Left 2
SYMATTR InstName D2
SYMATTR Value 1N4148
SYMBOL res -1360 -32 R0
SYMATTR InstName R2
SYMATTR Value 10k
SYMBOL res -1360 80 R90
WINDOW 0 0 56 VBottom 2
WINDOW 3 32 56 VTop 2
SYMATTR InstName R3
SYMATTR Value 10k
SYMBOL res -1360 192 R90
WINDOW 0 0 56 VBottom 2
WINDOW 3 32 56 VTop 2
SYMATTR InstName R4
SYMATTR Value 10k
SYMBOL res -1216 192 R90
WINDOW 0 -3 27 VBottom 2
WINDOW 3 32 56 VTop 2
SYMATTR InstName R5
SYMATTR Value 10k
SYMBOL EIT_Semiconductors\\npn -1696 112 R0
SYMATTR InstName Q2
SYMATTR Value PXT4401
SYMBOL res -1648 256 R0
SYMATTR InstName R6
SYMATTR Value {Riu}
SYMBOL LED -1648 -208 R0
SYMATTR InstName D3
SYMATTR Value NSCW100
SYMATTR Description Diode
SYMATTR Type diode
SYMBOL LED -1648 -128 R0
SYMATTR InstName D5
SYMATTR Value NSCW100
SYMATTR Description Diode
SYMATTR Type diode
SYMBOL LED -1648 -48 R0
SYMATTR InstName D6
SYMATTR Value NSCW100
SYMATTR Description Diode
SYMATTR Type diode
SYMBOL res -1664 240 R90
WINDOW 0 0 56 VBottom 2
WINDOW 3 32 56 VTop 2
SYMATTR InstName R11
SYMATTR Value 1k
SYMBOL Misc\\jumper -2192 -32 R180
SYMATTR InstName X1
SYMBOL EXTRA\\ExtraOpamps\\LM324_ST -1744 160 M180
SYMATTR InstName U4
SYMBOL source-V -2256 -80 R0
WINDOW 123 0 0 Left 2
WINDOW 39 0 0 Left 2
WINDOW 3 -123 416 Left 2
SYMATTR InstName V2
SYMATTR Value PULSE(0 10 0 10n 10n {1/(3*fpwm)} {1/(fpwm)})
TEXT -1664 -432 Left 2 !.param Uin = 5V\n.param Iout = 200mA\n.param Riu = 5; {Uin/(5*Iout)}
TEXT -1952 -160 Left 2 !.tran 100m
TEXT -2048 -568 Left 2 !.param Re = 5\n.param R1 = 4.7k\n.param beta=256\n.param Rp = 200k\n.param set = 1  ; 0 => 0ohm\n.param RL = 1\n.param Rpot = {Rp*set+1u}\n.param RpotNot = {Rp*(1-set)+1u}\n.param Vplus = 20\n.param red = 2.2V\n.param led = {5*red}
TEXT -1776 -576 Left 2 !.model 1Nselber D(Is=.88f Rs=.25 Cjo=175p M=.55 nbv=1.7 bv=2.7 Vj=.75 \n+Isr=1.86n Nr=2 Ibv=20.245m Ibvl=1.96m Nbvl=15 Tbv1=-21.3u Vpk=2.7 \n+mfg=OnSemi type=Zener)
TEXT -2008 -184 Left 2 ;.step param set 0 1 0.02
TEXT -2376 272 Left 2 !.param fpwm=600
