Version 4
SHEET 1 1496 1288
WIRE -160 -384 -208 -384
WIRE 64 -208 64 -240
WIRE -112 -176 -256 -176
WIRE 0 -160 -48 -160
WIRE -112 -144 -144 -144
WIRE -256 -128 -256 -176
WIRE -80 -112 -80 -128
WIRE -144 -64 -144 -144
WIRE 64 -64 64 -112
WIRE 64 -64 -144 -64
WIRE 64 -48 64 -64
WIRE 64 80 64 32
FLAG 64 80 0
FLAG -256 -48 0
FLAG -80 -192 0
FLAG -80 -112 V+
FLAG 64 -560 V+
FLAG -160 -384 V+
SYMBOL EIT_Semiconductors\\npn 0 -208 R0
SYMATTR InstName Q1
SYMATTR Value PXT4401
SYMBOL res 48 -64 R0
SYMATTR InstName R1
SYMATTR Value {Riu}
SYMBOL source-V -256 -144 R0
WINDOW 123 28 109 Left 2
WINDOW 39 0 0 Left 2
SYMATTR InstName V1
SYMATTR Value 1
SYMATTR Value2 AC 1
SYMBOL EXTRA\\ExtraOpamps\\LM358_NS -80 -160 M180
WINDOW 3 -55 70 Left 2
SYMATTR InstName U1
SYMBOL subcircuits\\TB-5050rgb 48 -560 R0
SYMATTR InstName U2
SYMBOL subcircuits\\TB-5050rgb 48 -496 R0
SYMATTR InstName U3
SYMBOL subcircuits\\TB-5050rgb 48 -432 R0
SYMATTR InstName U4
SYMBOL subcircuits\\TB-5050rgb 48 -368 R0
SYMATTR InstName U5
SYMBOL subcircuits\\TB-5050rgb 48 -304 R0
SYMATTR InstName U6
SYMBOL source-Vmarker -208 -384 R0
SYMATTR Value V=18V
SYMATTR InstName U7
TEXT 272 -632 Left 2 !.tran 10m
TEXT 768 -632 Left 2 !*\n**********************************************************\n*\n* PXT4401\n*\n* NXP Semiconductors\n*\n* Switching NPN transistor\n* IC   = 600 mA\n* VCEO = 40 V \n* hFE  = 100 - 300  @ 1V/150mA\n*\n*\n*\n*\n* Package pinning does not match Spice model pinning.\n* Package: SOT 89\n* \n* Package Pin 1: Emitter    \n* Package Pin 2: Collector\n* Package Pin 3: Base\n*\n*\n* Extraction date (week/year): 02/2009 \n* Simulator: Spice 3\n*\n**********************************************************\n*#\n.MODEL PXT4401 NPN\n+    IS=29.13E-15 \n+    NF=992.6E-3 \n+    ISE=9.652E-15 \n+    NE=1.516  \n+    BF=256.7  \n+    IKF = 489.9E-3 \n+    VAF = 80.99  \n+    NR = 984.4E-3 \n+    ISC = 320.3E-12 \n+    NC = 1.608  \n+    BR = 6.590  \n+    IKR = 192.9E-3 \n+    VAR = 101.2  \n+    RB = 1.000  \n+    IRB = 1.000E-3 \n+    RBM = 1.000  \n+    RE = 193.4E-3 \n+    RC = 224.8E-3 \n+    XTB = 0.000  \n+    EG = 1.110  \n+    XTI = 3.000  \n+    CJE = 25.89E-12 \n+    VJE = 689.1E-3 \n+    MJE = 366.8E-3 \n+    TF = 293.9E-12 \n+    XTF = 71.78  \n+    VTF = 20.00  \n+    ITF = 4.797  \n+    PTF = 0.000  \n+    CJC = 10.11E-12 \n+    VJC = 662.2E-3 \n+    MJC = 416.0E-3 \n+    XCJC = 0.5946  \n+    TR = 320.0E-9 \n+    CJS = 0.000  \n+    VJS = 750.0E-3 \n+    MJS = 333.0E-3 \n+    FC = 938.8E-3 \n*##\n*
TEXT -272 -576 Left 2 !.param Uin = 1V\n.param Iout = 25mA\n.param Riu = 25
