Version 4
SHEET 1 972 680
WIRE -128 -384 -128 -432
WIRE -448 -336 -480 -336
WIRE -384 -336 -448 -336
WIRE -128 -304 -128 -320
WIRE 160 -304 144 -304
WIRE 176 -304 160 -304
WIRE 208 -304 176 -304
WIRE 144 -256 144 -304
WIRE 176 -256 176 -304
WIRE 208 -256 208 -304
WIRE -128 -208 -128 -240
WIRE -208 -176 -352 -176
WIRE -352 -160 -352 -176
WIRE 144 -160 144 -192
WIRE 144 -160 80 -160
WIRE 208 -160 208 -192
WIRE 272 -160 208 -160
WIRE -128 -128 -128 -144
WIRE 80 -128 80 -160
WIRE 176 -128 176 -192
WIRE 272 -128 272 -160
WIRE -208 -112 -208 -176
WIRE -352 -64 -352 -80
WIRE -208 -16 -208 -64
WIRE -64 -16 -208 -16
WIRE -64 0 -64 -16
WIRE -64 48 -208 48
WIRE -208 96 -208 48
WIRE -16 176 -80 176
WIRE 16 176 -16 176
WIRE 32 176 16 176
WIRE -80 208 -80 176
WIRE -320 256 -432 256
WIRE -320 288 -320 256
WIRE -432 304 -432 256
WIRE -80 304 -80 288
WIRE -320 400 -320 368
WIRE -432 416 -432 384
FLAG -128 -48 0
FLAG -352 -64 0
FLAG -208 96 0
FLAG -128 -432 V+
FLAG -448 -336 V+
FLAG -208 -112 0
FLAG -320 400 0
FLAG -432 416 0
FLAG -80 304 0
FLAG -16 176 Ud
FLAG 80 -48 0
FLAG 176 -48 0
FLAG 272 -48 0
FLAG 160 -304 V+
SYMBOL source-I -352 -80 R180
WINDOW 0 29 73 Left 2
WINDOW 3 29 17 Left 2
WINDOW 123 0 0 Left 2
WINDOW 39 0 0 Left 2
SYMATTR InstName I1
SYMATTR Value 0
SYMBOL source-Vmarker -480 -336 R0
SYMATTR Value V=18V
SYMATTR InstName U3
SYMBOL source-I -128 -48 R180
WINDOW 0 29 73 Left 2
WINDOW 3 29 17 Left 2
WINDOW 123 0 0 Left 2
WINDOW 39 0 0 Left 2
SYMATTR InstName I2
SYMATTR Value 40m
SYMBOL bi -320 288 R0
SYMATTR InstName B1
SYMATTR Value I=4.5e-20*(exp(V(Ud)/(2.6*26m))-1)
SYMBOL res -448 288 R0
SYMATTR InstName R1
SYMATTR Value 1
SYMBOL source-V -80 192 R0
WINDOW 123 0 0 Left 2
WINDOW 39 0 0 Left 2
SYMATTR InstName V1
SYMATTR Value 0
SYMBOL LED -144 -384 R0
WINDOW 3 85 45 Left 2
SYMATTR InstName D2
SYMATTR Value LEDr
SYMATTR Description Diode
SYMATTR Type diode
SYMBOL LED -144 -304 R0
WINDOW 3 85 45 Left 2
SYMATTR InstName D1
SYMATTR Value LEDg
SYMATTR Description Diode
SYMATTR Type diode
SYMBOL LED -144 -208 R0
WINDOW 3 85 45 Left 2
SYMATTR InstName D3
SYMATTR Value LEDb
SYMATTR Description Diode
SYMATTR Type diode
SYMBOL source-I 80 -48 R180
WINDOW 0 29 73 Left 2
WINDOW 3 29 17 Left 2
WINDOW 123 0 0 Left 2
WINDOW 39 0 0 Left 2
SYMATTR InstName I3
SYMATTR Value 40m
SYMBOL source-I 176 -48 R180
WINDOW 0 29 73 Left 2
WINDOW 3 29 17 Left 2
WINDOW 123 0 0 Left 2
WINDOW 39 0 0 Left 2
SYMATTR InstName I4
SYMATTR Value 40m
SYMBOL source-I 272 -48 R180
WINDOW 0 29 73 Left 2
WINDOW 3 29 17 Left 2
WINDOW 123 0 0 Left 2
WINDOW 39 0 0 Left 2
SYMATTR InstName I5
SYMATTR Value 40m
SYMBOL subcircuits\\mixed2ac 16 192 R0
SYMATTR InstName X1
SYMBOL subcircuits\\TB-5050rgb 128 -256 R0
SYMATTR InstName U1
TEXT -72 -368 Left 2 !.dc V1 0 3.25 0.01
TEXT -472 -488 Left 2 !.model LEDr D(Is={40m/exp(2.12/(2.6*26m))} Rs=.85 N=2.6 Cjo=1.18n Xti=200)\n.model LEDg D(Is={40m/exp(3.3/(2.6*26m))} Rs=.85 N=2.6 Cjo=1.18n Xti=200)\n.model LEDb D(Is={40m/exp(3.3/(2.6*26m))} Rs=.85 N=2.6 Cjo=1.18n Xti=200)
TEXT -344 488 Left 2 ;.inc Z:\\home\\mainster\\CODES_local\\LTSpice_projects\\subcircuits\\TB-5050.sub
