Version 4
SHEET 1 880 680
WIRE -640 0 -800 0
WIRE -480 0 -560 0
WIRE -432 0 -480 0
WIRE -384 0 -432 0
WIRE -288 0 -384 0
WIRE -256 0 -288 0
WIRE -128 0 -176 0
WIRE -96 0 -128 0
WIRE 16 0 -96 0
WIRE 128 0 16 0
WIRE -96 16 -96 0
WIRE 16 80 16 0
WIRE -800 96 -800 0
WIRE -624 96 -624 64
WIRE -432 96 -432 0
WIRE -384 96 -384 0
WIRE -288 96 -288 0
WIRE 128 96 128 0
WIRE -96 112 -96 96
WIRE -96 128 -96 112
WIRE -800 208 -800 176
WIRE -624 208 -624 176
WIRE -432 208 -432 160
WIRE -384 208 -384 176
WIRE -288 208 -288 160
WIRE -96 208 -96 192
WIRE 16 208 16 160
WIRE 128 208 128 176
FLAG -432 208 0
FLAG -800 208 0
FLAG -624 208 0
FLAG -480 0 sw_buck
FLAG -128 0 out_buck
FLAG 128 208 0
FLAG -96 208 0
FLAG -96 112 ca
FLAG -384 208 0
FLAG -288 208 0
FLAG 16 208 0
FLAG -576 64 0
SYMBOL ind -160 -16 R90
WINDOW 0 5 56 VBottom 0
WINDOW 3 38 61 VTop 0
SYMATTR InstName L1
SYMATTR Value 100µ
SYMBOL schottky -416 160 R180
WINDOW 0 24 64 Left 0
WINDOW 3 24 0 Left 0
SYMATTR InstName D1
SYMATTR Value Dx
SYMATTR Description Diode
SYMATTR Type diode
SYMBOL cap -112 128 R0
SYMATTR InstName C1
SYMATTR Value 100µ
SYMBOL res -112 0 R0
SYMATTR InstName Rs1
SYMATTR Value 0.2
SYMBOL res -400 80 R0
SYMATTR InstName Rpar1
SYMATTR Value 20k
SYMBOL cap -304 96 R0
SYMATTR InstName Cpar1
SYMATTR Value 400p
SYMBOL res 0 64 R0
SYMATTR InstName R1
SYMATTR Value {RL}
SYMBOL crtl-V-S -656 0 R270
SYMATTR InstName S1
SYMBOL source-V -800 80 R0
WINDOW 123 0 0 Left 0
WINDOW 39 28 109 Left 0
SYMATTR InstName V1
SYMATTR Value 20
SYMATTR SpiceLine Rser=1m
SYMBOL source-V -624 80 R0
SYMATTR InstName V2
SYMBOL source-I 128 176 M180
WINDOW 0 29 73 Left 0
WINDOW 3 29 17 Left 0
WINDOW 123 0 0 Left 0
WINDOW 39 0 0 Left 0
SYMATTR InstName I1
SYMATTR Value {IL}
TEXT -800 -200 Left 0 !.model sw ctrl-v-s Roff=1T Ron=1m Vh=-5 Vt =1.25
TEXT -808 -408 Left 0 !.param fsw={1/33.3u}\n.param RL=5.47\n.param trf=10n\n.param Rs=200m\n.param p=0.313\n.param IL=1n
TEXT -832 272 Left 0 !.tran 3m
TEXT -512 -296 Left 0 ;.step param Rs list 100m 1m 500u
TEXT -800 -168 Left 0 !.model Dx D {Ron=1m Roff=1T Vfwd=0.4}
