Version 4
SHEET 1 952 680
WIRE 656 -96 304 -96
WIRE 816 -96 656 -96
WIRE 304 -80 304 -96
WIRE 656 -80 656 -96
WIRE 816 -64 816 -96
WIRE 416 48 224 48
WIRE 720 48 528 48
WIRE 416 64 416 48
WIRE 528 64 528 48
WIRE 304 96 304 0
WIRE 656 96 656 0
WIRE 816 96 816 16
WIRE 304 112 304 96
WIRE 352 112 304 112
WIRE 656 112 656 96
WIRE 656 112 592 112
WIRE 32 160 0 160
WIRE 160 160 112 160
WIRE 192 160 160 160
WIRE 224 160 224 48
WIRE 224 160 192 160
WIRE 240 160 224 160
WIRE 720 160 720 48
WIRE 800 160 720 160
WIRE 0 192 0 160
WIRE 160 192 160 160
WIRE 800 192 800 160
WIRE 304 240 304 208
WIRE 656 240 656 208
WIRE 656 240 304 240
WIRE 0 288 0 272
WIRE 160 288 160 272
WIRE 304 288 304 240
WIRE 800 304 800 272
WIRE 304 384 304 368
WIRE 416 384 416 160
WIRE 528 384 528 160
WIRE 528 384 416 384
WIRE 544 384 528 384
FLAG 304 384 0
FLAG 800 304 0
FLAG 160 288 0
FLAG 0 288 0
FLAG 816 96 0
FLAG 304 96 c1
FLAG 656 96 c2
FLAG 192 160 in
SYMBOL EIT_Semiconductors\\npn 240 112 R0
WINDOW 3 -40 98 Left 2
SYMATTR InstName Q1
SYMATTR Value CA3046
SYMBOL EIT_Semiconductors\\npn 720 112 M0
WINDOW 3 -45 106 Left 2
SYMATTR InstName Q2
SYMATTR Value CA3046
SYMBOL source-I 304 368 R180
WINDOW 0 29 73 Left 2
WINDOW 3 29 17 Left 2
SYMATTR InstName I1
SYMATTR Value 1m
SYMBOL res 288 -96 R0
SYMATTR InstName RC1
SYMATTR Value 10k
SYMBOL res 640 -96 R0
SYMATTR InstName RC2
SYMATTR Value 10k
SYMBOL res 784 176 R0
SYMATTR InstName R1
SYMATTR Value 10
SYMBOL res 144 176 R0
SYMATTR InstName R2
SYMATTR Value 10
SYMBOL res 16 176 R270
WINDOW 0 25 56 VTop 2
WINDOW 3 7 56 VBottom 2
SYMATTR InstName R3
SYMATTR Value 40
SYMBOL source-V 0 176 R0
SYMATTR InstName V1
SYMATTR Value 0
SYMBOL source-V 816 -80 R0
SYMATTR InstName Vplus
SYMATTR Value 10
SYMBOL EIT_Semiconductors\\pnp_o 352 64 R0
SYMATTR InstName QP1
SYMATTR Value PNPx
SYMBOL EIT_Semiconductors\\pnp_o 592 64 M0
SYMATTR InstName QP2
SYMATTR Value PNPx
SYMBOL source-Vmarker 544 384 M0
SYMATTR Value V=-5V
SYMATTR InstName U1
TEXT 24 24 Left 2 !.dc v1 -1 1 25m
TEXT 32 -16 Left 2 !.step Vplus 5 10 1
TEXT -8 -176 Left 4 ;Versuch 3: Sättigung von Q1 und Q2
TEXT 104 440 Left 3 ;QP1 oder Qp2 werden aktiv wenn Q1 oder Q2 sättigt
TEXT 328 -128 Left 4 !.model pnpx pnp (IS=1.e-9)
