Version 4
SHEET 1 880 680
WIRE -1680 -1664 -2208 -1664
WIRE -1664 -1664 -1680 -1664
WIRE -1568 -1664 -1584 -1664
WIRE -1840 -1600 -1872 -1600
WIRE -1824 -1600 -1840 -1600
WIRE -1872 -1584 -1872 -1600
WIRE -1680 -1568 -1680 -1664
WIRE -1936 -1536 -1968 -1536
WIRE -1920 -1536 -1936 -1536
WIRE -1920 -1520 -1920 -1536
WIRE -1824 -1488 -1824 -1600
WIRE -2208 -1472 -2208 -1664
WIRE -2192 -1472 -2208 -1472
WIRE -1952 -1472 -2032 -1472
WIRE -1680 -1424 -1680 -1488
WIRE -1680 -1424 -1728 -1424
WIRE -1584 -1424 -1680 -1424
WIRE -2112 -1376 -2144 -1376
WIRE -1952 -1376 -2032 -1376
WIRE -1584 -1376 -1584 -1424
WIRE -1872 -1328 -1872 -1344
WIRE -1776 -1328 -1776 -1376
WIRE -1936 -1296 -1968 -1296
WIRE -1920 -1296 -1920 -1328
WIRE -1920 -1296 -1936 -1296
WIRE -1824 -1248 -1824 -1360
WIRE -1776 -1248 -1776 -1264
WIRE -1776 -1248 -1824 -1248
WIRE -1584 -1248 -1584 -1296
WIRE -1904 -1232 -1920 -1232
WIRE -1872 -1232 -1872 -1248
WIRE -1872 -1232 -1904 -1232
WIRE -1776 -1008 -1792 -1008
WIRE -688 -1008 -944 -1008
WIRE -432 -1008 -688 -1008
WIRE -432 -960 -432 -1008
WIRE -944 -944 -944 -1008
WIRE -1888 -880 -1936 -880
WIRE -1776 -880 -1808 -880
WIRE -1728 -880 -1776 -880
WIRE -1616 -880 -1648 -880
WIRE -1584 -880 -1616 -880
WIRE -1568 -880 -1584 -880
WIRE -480 -880 -800 -880
WIRE -944 -832 -944 -864
WIRE -944 -832 -1072 -832
WIRE -800 -832 -800 -880
WIRE -800 -832 -944 -832
WIRE -768 -832 -800 -832
WIRE -592 -832 -704 -832
WIRE -592 -816 -592 -832
WIRE -432 -800 -432 -864
WIRE -432 -800 -496 -800
WIRE -1600 -784 -1696 -784
WIRE -1584 -784 -1600 -784
WIRE -944 -784 -944 -832
WIRE -1696 -768 -1696 -784
WIRE -1600 -768 -1600 -784
WIRE -496 -768 -496 -800
WIRE -496 -768 -528 -768
WIRE -432 -768 -432 -800
WIRE -1072 -752 -1072 -832
WIRE -800 -736 -800 -832
WIRE -1776 -720 -1776 -880
WIRE -1744 -720 -1776 -720
WIRE -1712 -720 -1744 -720
WIRE -1536 -688 -1552 -688
WIRE -592 -672 -592 -720
WIRE -432 -672 -432 -688
WIRE -432 -672 -592 -672
WIRE -272 -672 -432 -672
WIRE -1744 -656 -1792 -656
WIRE -1712 -656 -1744 -656
WIRE -944 -656 -944 -704
WIRE -848 -656 -944 -656
WIRE -432 -656 -432 -672
WIRE -592 -640 -592 -672
WIRE -1632 -608 -1648 -608
WIRE -1696 -592 -1696 -608
WIRE -1680 -592 -1696 -592
WIRE -944 -592 -944 -656
WIRE -496 -592 -528 -592
WIRE -1792 -576 -1792 -656
WIRE -1136 -576 -1216 -576
WIRE -1072 -576 -1072 -688
WIRE -1072 -576 -1136 -576
WIRE -496 -544 -496 -592
WIRE -432 -544 -432 -576
WIRE -432 -544 -496 -544
WIRE -1792 -480 -1792 -496
WIRE -1072 -480 -1072 -576
WIRE -944 -480 -944 -512
WIRE -944 -480 -1072 -480
WIRE -800 -480 -800 -640
WIRE -800 -480 -944 -480
WIRE -768 -480 -800 -480
WIRE -592 -480 -592 -544
WIRE -592 -480 -704 -480
WIRE -944 -448 -944 -480
WIRE -432 -448 -432 -544
WIRE -800 -432 -800 -480
WIRE -480 -432 -800 -432
WIRE -272 -432 -272 -672
WIRE -944 -288 -944 -368
WIRE -720 -288 -944 -288
WIRE -432 -288 -432 -352
WIRE -432 -288 -720 -288
WIRE -944 -272 -944 -288
WIRE -272 -144 -272 -352
WIRE -272 16 -272 -64
FLAG -1936 -1536 +30V
FLAG -1936 -1296 -30V
FLAG -1840 -1600 Ilc
FLAG -1904 -1232 Ilc
FLAG -2144 -1376 0
FLAG -1792 -480 0
FLAG -1568 -1664 0
FLAG -1584 -1248 0
FLAG -720 -288 -30V
FLAG -688 -1008 +30V
FLAG -1936 -880 0
FLAG -1632 -608 0
FLAG -1584 -784 +30V
FLAG -1680 -592 -30V
FLAG -1744 -656 hv2+
FLAG -1744 -720 hv2-
FLAG -1936 -1008 0
FLAG -1776 -1008 0
FLAG -1616 -880 vs
FLAG -272 16 0
FLAG -1456 -688 0
FLAG -1136 -576 hv2+
FLAG -1584 -880 0
SYMBOL OpAmp.Add\\pa19 -1904 -1424 R0
SYMATTR InstName U1
SYMBOL res -1888 -1488 M180
WINDOW 0 36 76 Left 2
WINDOW 3 36 40 Left 2
SYMATTR InstName R1
SYMATTR Value .03
SYMBOL res -1888 -1344 R0
SYMATTR InstName R2
SYMATTR Value .03
SYMBOL cap -1760 -1264 R180
WINDOW 0 24 64 Left 2
WINDOW 3 24 8 Left 2
SYMATTR InstName C1
SYMATTR Value 5.6p
SYMBOL res -2128 -1456 R270
WINDOW 0 25 56 VTop 2
WINDOW 3 7 56 VBottom 2
SYMATTR InstName R3
SYMATTR Value 1
SYMBOL res -2128 -1360 R270
WINDOW 0 25 56 VTop 2
WINDOW 3 7 56 VBottom 2
SYMATTR InstName R4
SYMATTR Value 1k
SYMBOL source-V -1792 -592 R0
WINDOW 3 -90 144 Left 2
WINDOW 123 0 0 Left 2
WINDOW 39 0 0 Left 2
SYMATTR InstName V1
SYMATTR Value SINE(0 5 1k)
SYMBOL res -1696 -1584 R0
SYMATTR InstName R5
SYMATTR Value 500
SYMBOL res -1680 -1648 R270
WINDOW 0 25 56 VTop 2
WINDOW 3 7 56 VBottom 2
SYMATTR InstName R6
SYMATTR Value 110
SYMBOL source-I -2112 -1472 R90
WINDOW 0 -27 40 VBottom 2
WINDOW 3 27 40 VTop 2
WINDOW 123 0 0 Left 2
WINDOW 39 0 0 Left 2
SYMATTR InstName I1
SYMATTR Value SINE(0 3m 1k)
SYMBOL res -1600 -1392 R0
SYMATTR InstName R7
SYMATTR Value 1
SYMBOL res -960 -800 R0
SYMATTR InstName R8
SYMATTR Value 220
SYMBOL res -960 -608 R0
SYMATTR InstName R9
SYMATTR Value 220
SYMBOL source-I -944 -864 R180
WINDOW 0 23 -1 Left 2
WINDOW 3 23 -23 Left 2
WINDOW 123 0 0 Left 2
WINDOW 39 47 13 Left 2
SYMATTR InstName I2
SYMATTR Value {Iq}
SYMBOL source-I -944 -368 R180
WINDOW 0 23 -1 Left 2
WINDOW 3 23 -23 Left 2
WINDOW 123 0 0 Left 2
WINDOW 39 47 13 Left 2
SYMATTR InstName I3
SYMATTR Value {Iq}
SYMBOL EIT_Semiconductors\\nmos -848 -736 R0
SYMATTR InstName M1
SYMATTR Value IRF9410
SYMBOL diode -704 -496 R90
WINDOW 0 0 32 VBottom 2
WINDOW 3 32 32 VTop 2
SYMATTR InstName D1
SYMATTR Value 1N4148
SYMBOL diode -768 -848 M90
WINDOW 0 0 32 VBottom 2
WINDOW 3 32 32 VTop 2
SYMATTR InstName D2
SYMATTR Value 1N4148
SYMBOL EIT_Semiconductors\\npn -528 -816 M0
SYMATTR InstName Q1
SYMATTR Value 2N3904
SYMBOL EIT_Semiconductors\\pnp -528 -544 R180
SYMATTR InstName Q2
SYMATTR Value 2N3906
SYMBOL res -448 -784 R0
SYMATTR InstName R10
SYMATTR Value 1.5
SYMBOL res -448 -672 R0
SYMATTR InstName R11
SYMATTR Value 0.5
SYMBOL EIT_Semiconductors\\nmos -480 -960 R0
SYMATTR InstName M2
SYMATTR Value IRF9410
SYMBOL EIT_Semiconductors\\pmos -480 -352 M180
SYMATTR InstName M3
SYMATTR Value IRFP9240
SYMBOL res -1904 -896 M90
WINDOW 0 7 56 VBottom 2
WINDOW 3 25 56 VTop 2
SYMATTR InstName R12
SYMATTR Value 5k1
SYMBOL res -1744 -864 R270
WINDOW 0 25 56 VTop 2
WINDOW 3 7 56 VBottom 2
SYMATTR InstName R13
SYMATTR Value 10k
SYMBOL Opamps\\LTC6090 -1648 -688 R0
WINDOW 0 32 47 Left 2
WINDOW 3 -49 124 Left 2
SYMATTR InstName U2
SYMBOL cap -1792 -1024 R90
WINDOW 0 0 32 VBottom 2
WINDOW 3 32 32 VTop 2
SYMATTR InstName C2
SYMATTR Value {Clag}
SYMBOL res -1952 -1024 M90
WINDOW 0 7 56 VBottom 2
WINDOW 3 33 50 VTop 2
SYMATTR InstName R14
SYMATTR Value 120
SYMBOL res -1440 -672 M270
WINDOW 3 7 56 VBottom 2
WINDOW 0 25 56 VTop 2
SYMATTR Value 1
SYMATTR InstName R15
SYMBOL cap -1088 -752 R0
SYMATTR InstName C3
SYMATTR Value 100p
SYMBOL res -288 -160 R0
SYMATTR InstName R16
SYMATTR Value 0.1
SYMBOL res -288 -448 R0
SYMATTR InstName R17
SYMATTR Value 5
RECTANGLE Normal -2032 -1408 -2240 -1536 2
