Version 4
SHEET 1 1104 680
WIRE -640 -752 -672 -752
WIRE -608 -752 -640 -752
WIRE -640 -720 -672 -720
WIRE -608 -720 -640 -720
WIRE -608 -560 -640 -560
WIRE -480 -560 -528 -560
WIRE -432 -560 -480 -560
WIRE -336 -560 -352 -560
WIRE 288 -528 160 -528
WIRE 480 -528 352 -528
WIRE -64 -512 -80 -512
WIRE 16 -512 0 -512
WIRE 800 -512 672 -512
WIRE 992 -512 864 -512
WIRE -416 -496 -432 -496
WIRE -416 -480 -416 -496
WIRE 384 -480 368 -480
WIRE -480 -464 -480 -560
WIRE -448 -464 -480 -464
WIRE 384 -464 384 -480
WIRE 896 -464 880 -464
WIRE -336 -448 -336 -560
WIRE -336 -448 -384 -448
WIRE -288 -448 -336 -448
WIRE -192 -448 -208 -448
WIRE -160 -448 -192 -448
WIRE -64 -448 -160 -448
WIRE 16 -448 16 -512
WIRE 16 -448 0 -448
WIRE 48 -448 16 -448
WIRE 160 -448 160 -528
WIRE 160 -448 128 -448
WIRE 176 -448 160 -448
WIRE 272 -448 256 -448
WIRE 352 -448 272 -448
WIRE 896 -448 896 -464
WIRE -832 -432 -944 -432
WIRE -816 -432 -832 -432
WIRE -704 -432 -816 -432
WIRE -592 -432 -624 -432
WIRE -448 -432 -592 -432
WIRE 480 -432 480 -528
WIRE 480 -432 416 -432
WIRE 512 -432 480 -432
WIRE 560 -432 512 -432
WIRE 672 -432 672 -512
WIRE 672 -432 640 -432
WIRE 688 -432 672 -432
WIRE 784 -432 768 -432
WIRE 864 -432 784 -432
WIRE -192 -416 -192 -448
WIRE 352 -416 320 -416
WIRE 992 -416 992 -512
WIRE 992 -416 928 -416
WIRE 1040 -416 992 -416
WIRE 1056 -416 1040 -416
WIRE -832 -400 -832 -432
WIRE -592 -400 -592 -432
WIRE -416 -400 -416 -416
WIRE -416 -400 -432 -400
WIRE 272 -400 272 -448
WIRE 864 -400 832 -400
WIRE 384 -384 384 -400
WIRE 384 -384 368 -384
WIRE 784 -384 784 -432
WIRE 896 -368 896 -384
WIRE 896 -368 880 -368
WIRE -944 -352 -944 -432
WIRE -480 -352 -480 -464
WIRE 320 -352 320 -416
WIRE 480 -352 480 -432
WIRE 480 -352 320 -352
WIRE 832 -336 832 -400
WIRE 992 -336 992 -416
WIRE 992 -336 832 -336
WIRE -688 -320 -688 -352
WIRE 272 -320 272 -336
WIRE -832 -304 -832 -320
WIRE -592 -304 -592 -320
WIRE -192 -304 -192 -352
WIRE 784 -304 784 -320
WIRE -944 -256 -944 -272
WIRE -688 -224 -688 -240
WIRE -480 -224 -480 -272
WIRE -480 -224 -688 -224
WIRE -688 -208 -688 -224
WIRE -480 -208 -480 -224
WIRE -480 -128 -480 -144
WIRE -688 -96 -688 -128
FLAG -592 -304 0
FLAG -640 -560 0
FLAG -480 -128 0
FLAG -816 -432 stim
FLAG -832 -304 0
FLAG -192 -304 0
FLAG -944 -256 0
FLAG 272 -320 0
FLAG 784 -304 0
FLAG -80 -512 stim
FLAG -416 -496 V+
FLAG 384 -384 V+
FLAG 896 -368 V+
FLAG 896 -464 V-
FLAG 384 -480 V-
FLAG -416 -400 V-
FLAG -160 -448 A
FLAG 512 -432 B
FLAG 1040 -416 C
FLAG -640 -752 V+
FLAG -640 -720 V-
SYMBOL res -448 -544 R270
WINDOW 0 25 56 VTop 2
WINDOW 3 7 56 VBottom 2
SYMATTR InstName R1
SYMATTR Value 220
SYMBOL res -624 -544 R270
WINDOW 0 25 56 VTop 2
WINDOW 3 7 56 VBottom 2
SYMATTR InstName R2
SYMATTR Value 22
SYMBOL res -608 -416 R0
SYMATTR InstName R3
SYMATTR Value 47
SYMBOL cap -496 -208 R0
SYMATTR InstName C1
SYMATTR Value 3.9n
SYMBOL res -496 -368 R0
SYMATTR InstName R4
SYMATTR Value 430
SYMBOL res -704 -336 R0
SYMATTR InstName R5
SYMATTR Value {Roff*set}
SYMBOL res -704 -224 R0
SYMATTR InstName R6
SYMATTR Value {Roff*(1-set)}
SYMBOL source-Vmarker -688 -352 R0
SYMATTR InstName U1
SYMBOL source-Vmarker -688 -96 R0
SYMATTR Value V=-5V
SYMATTR InstName U2
SYMBOL res -608 -448 R90
WINDOW 0 7 56 VBottom 2
WINDOW 3 25 56 VTop 2
SYMATTR InstName R7
SYMATTR Value 220
SYMBOL res -816 -416 M0
SYMATTR InstName R8
SYMATTR Value 62t
SYMBOL res -192 -464 R90
WINDOW 0 7 56 VBottom 2
WINDOW 3 25 56 VTop 2
SYMATTR InstName R9
SYMATTR Value 47
SYMBOL cap -208 -416 R0
SYMATTR InstName C2
SYMATTR Value 22p
SYMBOL source-V -944 -368 M0
WINDOW 123 0 0 Left 2
WINDOW 39 0 0 Left 2
WINDOW 3 79 149 Right 2
SYMATTR Value SINE(0 10 5k)
SYMATTR InstName V1
SYMBOL res 32 -432 R270
WINDOW 0 25 56 VTop 2
WINDOW 3 7 56 VBottom 2
SYMATTR InstName R10
SYMATTR Value 5.6k
SYMBOL res 160 -432 R270
WINDOW 0 25 56 VTop 2
WINDOW 3 7 56 VBottom 2
SYMATTR InstName R11
SYMATTR Value 6.8k
SYMBOL cap 288 -400 M0
SYMATTR InstName C3
SYMATTR Value 10n
SYMBOL cap 288 -512 R270
WINDOW 0 32 32 VTop 2
WINDOW 3 0 32 VBottom 2
SYMATTR InstName C4
SYMATTR Value 20n
SYMBOL res 544 -416 R270
WINDOW 0 25 56 VTop 2
WINDOW 3 7 56 VBottom 2
SYMATTR InstName R12
SYMATTR Value 680
SYMBOL res 672 -416 R270
WINDOW 0 25 56 VTop 2
WINDOW 3 7 56 VBottom 2
SYMATTR InstName R13
SYMATTR Value 1k
SYMBOL cap 800 -384 M0
SYMATTR InstName C5
SYMATTR Value 10n
SYMBOL cap 800 -496 R270
WINDOW 0 32 32 VTop 2
WINDOW 3 0 32 VBottom 2
SYMATTR InstName C6
SYMATTR Value 360n
SYMBOL Opamps\\LT1124 -416 -512 R0
SYMATTR InstName U3
SYMBOL Opamps\\LT1124 384 -368 M180
SYMATTR InstName U4
SYMBOL Opamps\\LT1124 896 -352 M180
SYMATTR InstName U5
SYMBOL Misc\\jumper -32 -576 R0
SYMATTR InstName X1
SYMBOL source-Vmarker -672 -752 R0
SYMATTR InstName U6
SYMATTR Value V=12V
SYMBOL source-Vmarker -672 -720 R0
SYMATTR InstName U7
SYMATTR Value V=-12V
TEXT -976 -576 Left 2 !.param Roff=2k\n.param set=0.5
TEXT -1024 -74 Left 2 !.tran {5/5k}
