Version 4
SHEET 1 880 680
WIRE 256 -192 160 -192
WIRE 272 -192 256 -192
WIRE 160 -144 160 -192
WIRE 160 -32 160 -64
WIRE 224 64 160 64
WIRE 240 64 224 64
WIRE 160 96 160 64
WIRE 80 112 -48 112
WIRE -48 128 -48 112
WIRE -48 224 -48 208
FLAG 160 176 0
FLAG 80 160 0
FLAG -48 224 0
FLAG 224 64 lap1
FLAG 160 -32 0
FLAG 256 -192 arb
SYMBOL crtl-V-V 160 80 R0
SYMATTR InstName E1
SYMATTR Value laplace=1/(s*(1/(2*pi*fa)) +1)^N
SYMBOL source-V -48 112 R0
WINDOW 123 28 109 Left 2
WINDOW 39 0 0 Left 2
SYMATTR InstName V1
SYMATTR Value 1
SYMATTR Value2 AC 1
SYMBOL bv 160 -160 R0
SYMATTR InstName B1
SYMATTR Value V=V(lap1)+V(lap1)
TEXT 248 224 Left 2 !.param fa = 1k\n.param N = 1
TEXT 240 288 Left 2 !;.step param fa list 1k 5k 25k\n.step param N list 1 2 5
TEXT -76 284 Left 2 !.ac oct 100 1 100k
