Version 4
SHEET 1 880 680
WIRE 272 -144 240 -144
WIRE 48 -64 16 -64
WIRE 144 -64 112 -64
WIRE 240 -64 240 -144
WIRE 144 -48 144 -64
WIRE 176 -48 144 -48
WIRE 240 -48 240 -64
WIRE 256 -48 240 -48
WIRE 144 -32 144 -48
WIRE 16 32 16 -64
WIRE 144 80 144 48
WIRE 16 144 16 112
WIRE 144 192 144 160
FLAG 144 192 0
FLAG 16 144 0
FLAG 336 -48 0
FLAG 352 -144 0
SYMBOL ind 128 -48 R0
SYMATTR InstName L1
SYMATTR Value 170µ
SYMBOL res 128 64 R0
SYMATTR InstName R1
SYMATTR Value 1.51
SYMBOL source-V 16 16 R0
WINDOW 3 -94 251 Left 2
WINDOW 123 0 0 Left 2
WINDOW 39 0 0 Left 2
SYMATTR InstName V1
SYMATTR Value PULSE(0 {Vstep} 0 {Utr})
SYMBOL source-I 256 -48 R270
WINDOW 0 27 40 VTop 2
WINDOW 3 -25 106 VBottom 2
WINDOW 123 0 0 Left 2
WINDOW 39 -1 40 VTop 2
SYMATTR InstName I1
SYMATTR Value PULSE(0 {Iin} 0 {tir})
SYMATTR SpiceLine load
SYMBOL Misc\\jumper 208 -128 R0
SYMATTR InstName X1
SYMBOL Misc\\jumper 80 -128 R0
SYMATTR InstName X2
SYMBOL res 368 -160 R90
WINDOW 0 0 56 VBottom 2
WINDOW 3 32 56 VTop 2
SYMATTR InstName R2
SYMATTR Value 1
TEXT -40 -128 Left 2 !.param Vstep = 30\n;.step param Vstep 1 10 0.1
TEXT -42 216 Left 2 !.tran {20*Utr} startup
TEXT -24 376 Left 2 !.param tr = 1n\n;.step param tr 1n 1u 50n
TEXT 264 72 Left 2 !.param Iin=1A\n.param tir=1u\n.param Utr=1u
