Version 4
SHEET 1 880 680
WIRE 560 -432 416 -432
WIRE 720 -432 672 -432
WIRE 752 -432 720 -432
WIRE 560 -400 432 -400
WIRE 720 -400 672 -400
WIRE 752 -400 720 -400
WIRE 560 -368 448 -368
WIRE 720 -368 672 -368
WIRE 752 -368 720 -368
WIRE 464 -336 464 -688
WIRE 464 -336 368 -336
WIRE 560 -336 464 -336
WIRE 720 -336 672 -336
WIRE 752 -336 720 -336
WIRE 480 -304 480 -656
WIRE 480 -304 368 -304
WIRE 560 -304 480 -304
WIRE 720 -304 672 -304
WIRE 752 -304 720 -304
WIRE 496 -272 496 -624
WIRE 496 -272 368 -272
WIRE 560 -272 496 -272
WIRE 720 -272 672 -272
WIRE 736 -272 720 -272
WIRE 512 -240 512 -592
WIRE 512 -240 368 -240
WIRE 560 -240 512 -240
WIRE 720 -240 672 -240
WIRE 736 -240 720 -240
WIRE 528 -208 528 -560
WIRE 528 -208 368 -208
WIRE 560 -208 528 -208
WIRE 720 -208 672 -208
WIRE 736 -208 720 -208
FLAG 720 -432 D0_
FLAG 720 -400 D1_
FLAG 720 -368 D2_
FLAG 720 -336 D3_
FLAG 720 -304 D4_
FLAG 720 -272 D5_
FLAG 720 -240 D6_
FLAG 720 -208 D7_
SYMBOL EIT_Digital\\PROBE_dig 560 -448 R0
SYMATTR Value T=0
SYMATTR InstName U1
SYMBOL EIT_Digital\\PROBE_dig 560 -416 R0
SYMATTR Value T=1
SYMATTR InstName U2
SYMBOL EIT_Digital\\PROBE_dig 560 -384 R0
SYMATTR Value T=2
SYMATTR InstName U3
SYMBOL EIT_Digital\\PROBE_dig 560 -352 R0
SYMATTR Value T=3
SYMATTR InstName U4
SYMBOL EIT_Digital\\PROBE_dig 560 -320 R0
SYMATTR Value T=4
SYMATTR InstName U5
SYMBOL EIT_Digital\\PROBE_dig 560 -288 R0
SYMATTR Value T=5
SYMATTR InstName U6
SYMBOL EIT_Digital\\PROBE_dig 560 -256 R0
SYMATTR Value T=6
SYMATTR InstName U7
SYMBOL EIT_Digital\\PROBE_dig 560 -224 R0
SYMATTR Value T=7
SYMATTR InstName U8
