Version 4
SHEET 1 880 680
SYMBOL EIT_Semiconductors\\op_3 272 192 R0
WINDOW 123 -242 -98 Left 2
WINDOW 3 -361 -125 Left 2
SYMATTR Value2 FT={FT} SR=10
SYMATTR Value Vp={0.95*Vsup} Vm={-0.95*Vsup} Ilim=20m
SYMATTR InstName U1
