Version 4
SHEET 1 1980 680
WIRE 384 -1008 336 -1008
WIRE 400 -1008 384 -1008
WIRE 336 -976 336 -1008
WIRE 336 -880 336 -896
WIRE 1264 -832 1200 -832
WIRE 1344 -832 1328 -832
WIRE 768 -816 704 -816
WIRE 848 -816 832 -816
WIRE 1088 -752 1056 -752
WIRE 1200 -752 1200 -832
WIRE 1200 -752 1168 -752
WIRE 1232 -752 1200 -752
WIRE 1344 -752 1344 -832
WIRE 1344 -752 1312 -752
WIRE 592 -736 560 -736
WIRE 704 -736 704 -816
WIRE 704 -736 672 -736
WIRE 736 -736 704 -736
WIRE 848 -736 848 -816
WIRE 848 -736 816 -736
WIRE 1200 -688 1200 -752
WIRE 1232 -688 1200 -688
WIRE 704 -672 704 -736
WIRE 736 -672 704 -672
WIRE 1344 -672 1344 -752
WIRE 1344 -672 1296 -672
WIRE 1376 -672 1344 -672
WIRE 1392 -672 1376 -672
WIRE 848 -656 848 -736
WIRE 848 -656 800 -656
WIRE 880 -656 848 -656
WIRE 896 -656 880 -656
WIRE 1232 -656 1200 -656
WIRE 736 -640 608 -640
WIRE 896 -576 880 -576
WIRE 1056 -544 1040 -544
WIRE 560 -528 544 -528
WIRE 1040 -464 1040 -544
WIRE 1040 -464 1008 -464
WIRE 1088 -464 1040 -464
WIRE 1200 -464 1200 -544
WIRE 1200 -464 1168 -464
WIRE 1232 -464 1200 -464
WIRE 1344 -464 1312 -464
WIRE 592 -448 544 -448
WIRE 704 -448 704 -528
WIRE 704 -448 672 -448
WIRE 736 -448 704 -448
WIRE 848 -448 816 -448
WIRE 1200 -400 1200 -464
WIRE 1232 -400 1200 -400
WIRE 704 -384 704 -448
WIRE 736 -384 704 -384
WIRE 1344 -384 1344 -464
WIRE 1344 -384 1296 -384
WIRE 1376 -384 1344 -384
WIRE 1392 -384 1376 -384
WIRE 848 -368 848 -448
WIRE 848 -368 800 -368
WIRE 880 -368 848 -368
WIRE 896 -368 880 -368
WIRE 1232 -368 1200 -368
WIRE 736 -352 608 -352
FLAG 336 -880 0
FLAG 384 -1008 stimac
FLAG 560 -736 0
FLAG 608 -640 stimac
FLAG 880 -656 lead
FLAG 544 -448 0
FLAG 608 -352 stimac
FLAG 880 -368 lag
FLAG 544 -528 0
FLAG 1200 -656 0
FLAG 1056 -752 stimac
FLAG 1376 -672 lead_inv
FLAG 912 -496 0
FLAG 1008 -464 stimac
FLAG 1376 -384 lag_inv
FLAG 880 -576 0
FLAG 1200 -368 0
SYMBOL source-V 336 -992 R0
WINDOW 3 43 95 Left 2
WINDOW 123 43 67 Left 2
WINDOW 39 0 0 Left 2
SYMATTR Value SINE(20m 1 100 20m)
SYMATTR Value2 AC 1
SYMATTR InstName V3
SYMBOL EIT_Semiconductors\\op_3 768 -656 R0
WINDOW 123 -38 -187 Invisible 2
WINDOW 3 -37 -168 Invisible 2
SYMATTR InstName U7
SYMBOL res 576 -720 R270
WINDOW 0 25 56 VTop 2
WINDOW 3 7 56 VBottom 2
SYMATTR InstName R4
SYMATTR Value 1k
SYMBOL cap 832 -832 R90
WINDOW 0 0 32 VBottom 2
WINDOW 3 32 32 VTop 2
SYMATTR InstName C1
SYMATTR Value {Clead}
SYMBOL res 720 -720 R270
WINDOW 0 25 56 VTop 2
WINDOW 3 7 56 VBottom 2
SYMATTR InstName R3
SYMATTR Value {1k*(gain-1)}
SYMBOL EIT_Semiconductors\\op_3 768 -368 R0
WINDOW 123 -38 -187 Invisible 2
WINDOW 3 -37 -168 Invisible 2
SYMATTR InstName U3
SYMBOL res 576 -432 R270
WINDOW 0 25 56 VTop 2
WINDOW 3 7 56 VBottom 2
SYMATTR InstName R1
SYMATTR Value 1k
SYMBOL cap 704 -544 R90
WINDOW 0 0 32 VBottom 2
WINDOW 3 32 32 VTop 2
SYMATTR InstName C2
SYMATTR Value {Clag}
SYMBOL res 656 -544 R90
WINDOW 0 7 56 VBottom 2
WINDOW 3 25 56 VTop 2
SYMATTR InstName R2
SYMATTR Value {Rlag}
SYMBOL res 720 -432 R270
WINDOW 0 25 56 VTop 2
WINDOW 3 7 56 VBottom 2
SYMATTR InstName R6
SYMATTR Value {1k*(gain-1)}
SYMBOL EIT_Semiconductors\\op_3 1264 -672 R0
WINDOW 123 -38 -187 Invisible 2
WINDOW 3 -37 -168 Invisible 2
SYMATTR InstName U1
SYMBOL res 1072 -736 R270
WINDOW 0 25 56 VTop 2
WINDOW 3 7 56 VBottom 2
SYMATTR InstName R5
SYMATTR Value 1k
SYMBOL cap 1328 -848 R90
WINDOW 0 0 32 VBottom 2
WINDOW 3 32 32 VTop 2
SYMATTR InstName C3
SYMATTR Value {Clead}
SYMBOL res 1216 -736 R270
WINDOW 0 25 56 VTop 2
WINDOW 3 7 56 VBottom 2
SYMATTR InstName R7
SYMATTR Value {1k*(gain-1)}
SYMBOL EIT_Semiconductors\\op_3 1264 -384 R0
WINDOW 123 -38 -187 Invisible 2
WINDOW 3 -37 -168 Invisible 2
SYMATTR InstName U2
SYMBOL res 1072 -448 R270
WINDOW 0 25 56 VTop 2
WINDOW 3 7 56 VBottom 2
SYMATTR InstName R8
SYMATTR Value 1k
SYMBOL cap 1200 -560 R90
WINDOW 0 0 32 VBottom 2
WINDOW 3 32 32 VTop 2
SYMATTR InstName C4
SYMATTR Value {Clag}
SYMBOL res 1152 -560 R90
WINDOW 0 7 56 VBottom 2
WINDOW 3 25 56 VTop 2
SYMATTR InstName R9
SYMATTR Value {Rlag}
SYMBOL res 1216 -448 R270
WINDOW 0 25 56 VTop 2
WINDOW 3 7 56 VBottom 2
SYMATTR InstName R10
SYMATTR Value {1k*(gain-1)}
TEXT -16 -328 Left 2 !.model SWx SW(Ron=1u Roff=100Meg Vt=0 Vh=-.5 )\n.inc ADA4700.sub\n.inc LM358.sub
TEXT 16 -968 Left 2 !;.tran 0 100m 1m\n;.options plotwinsize=0\n;.tran 0 2.8m 1.9m 1e-7\n.ac oct 100 100 1meg
TEXT -16 -560 Left 2 ;.step TEMP list 27 150
TEXT 16 -832 Left 2 !.option noopiter\n.options plotwinsize=0\n;.four 1k 10 I(L1)
TEXT -16 -536 Left 2 ;.step param Kpi list 1 5 10
TEXT 16 -864 Left 2 ;.dc V3 -5 5 .01
TEXT 16 -1000 Left 2 ;.op
TEXT 16 -744 Left 2 ;.tran 0 100m 1m\n.options plotwinsize=0
TEXT 24 -680 Left 2 ;.tran 0 50m\n.options plotwinsize=0
TEXT -16 -512 Left 2 ;.step param Lcoil list 1f 170u
TEXT -16 -488 Left 2 ;.step param Cf list 5p 10p 15p 20p
TEXT -8 -456 Left 2 ;.step param Ctp list 1p 100p 200p 470p 1n
TEXT -8 -424 Left 2 ;.step param Cf list 1p 20p 50p 100p
TEXT -8 -392 Left 2 ;.step param gainSum list 1 2 5
TEXT 520 -256 Left 2 !.param Rlag=1k\n.param Clead = {Clag}\n.param gain = 20
TEXT 816 -240 Left 2 !.step param Clag 400p 1n 200p
RECTANGLE Normal 296 -608 -32 -1024 2
RECTANGLE Normal 352 -368 -32 -592 2
RECTANGLE Normal 464 -256 -32 -352 2
