Version 4
SHEET 1 3844 868
WIRE 3520 288 3520 272
WIRE 3632 288 3632 272
WIRE 2496 304 2480 304
WIRE 2528 304 2496 304
WIRE 2640 304 2608 304
WIRE 2672 304 2640 304
WIRE 2768 304 2752 304
WIRE 2480 320 2480 304
WIRE 3248 352 3216 352
WIRE 3360 352 3328 352
WIRE 3520 368 3520 352
WIRE 3632 368 3632 352
WIRE 3632 368 3520 368
WIRE 3712 368 3632 368
WIRE 3744 368 3712 368
WIRE 2640 400 2640 304
WIRE 2672 400 2640 400
WIRE 3360 400 3360 352
WIRE 3520 400 3520 368
WIRE 3632 400 3632 368
WIRE 2768 416 2768 304
WIRE 2768 416 2736 416
WIRE 2800 416 2768 416
WIRE 2832 416 2800 416
WIRE 2672 432 2640 432
WIRE 3728 464 3712 464
WIRE 3744 464 3728 464
WIRE 3824 464 3808 464
WIRE 2528 496 2512 496
WIRE 2640 496 2640 432
WIRE 2640 496 2608 496
WIRE 3728 560 3728 464
WIRE 3728 560 3712 560
WIRE 3744 560 3728 560
WIRE 3824 560 3808 560
WIRE 3520 624 3520 592
WIRE 3728 624 3632 624
WIRE 3232 688 3200 688
WIRE 3264 688 3232 688
WIRE 3360 688 3360 624
WIRE 3360 688 3344 688
WIRE 3456 688 3456 624
WIRE 3456 688 3440 688
WIRE 3472 688 3456 688
WIRE 3568 688 3552 688
WIRE 3616 688 3568 688
WIRE 3568 704 3568 688
WIRE 2496 752 2432 752
WIRE 2496 784 2432 784
WIRE 3568 784 3568 768
WIRE 2496 816 2432 816
FLAG 3520 592 0
FLAG 3824 464 0
FLAG 3824 560 0
FLAG 3568 784 0
FLAG 3616 688 OUT
FLAG 3520 272 0
FLAG 3632 272 0
FLAG 2800 416 ADC_in
FLAG 2480 400 0
FLAG 2496 304 in1
FLAG 2496 816 cRg
FLAG 2496 752 cRf
FLAG 2496 784 cRb
FLAG 3712 368 +5V
FLAG 3728 624 +5V
FLAG 3232 688 in1
SYMBOL Opamps\\LTC6360 3520 512 R0
SYMATTR InstName U1
SYMBOL cap 3808 544 R90
WINDOW 0 0 32 VBottom 2
WINDOW 3 32 32 VTop 2
SYMATTR InstName C1
SYMATTR Value 10µ
SYMBOL cap 3744 480 R270
WINDOW 0 32 32 VTop 2
WINDOW 3 0 32 VBottom 2
SYMATTR InstName C2
SYMATTR Value .1µ
SYMBOL res 3456 704 R270
WINDOW 0 32 56 VTop 2
WINDOW 3 0 56 VBottom 2
SYMATTR InstName R1
SYMATTR Value 10
SYMBOL cap 3552 704 R0
SYMATTR InstName C3
SYMATTR Value 330p
SYMBOL cap 3616 288 R0
SYMATTR InstName C4
SYMATTR Value 0.1µ
SYMBOL cap 3504 288 R0
SYMATTR InstName C5
SYMATTR Value 1µ
SYMBOL res 2512 512 R270
WINDOW 0 25 56 VTop 2
WINDOW 3 7 56 VBottom 2
SYMATTR InstName Rb1
SYMATTR Value {Rb}
SYMBOL res 2512 320 R270
WINDOW 0 25 56 VTop 2
WINDOW 3 7 56 VBottom 2
SYMATTR InstName Rg1
SYMATTR Value {Rg}
SYMBOL res 2768 320 M270
WINDOW 0 25 56 VTop 2
WINDOW 3 7 56 VBottom 2
SYMATTR InstName Rf1
SYMATTR Value {Rf}
SYMBOL source-Vmarker 2512 496 R0
SYMATTR Value V={Vref}
SYMATTR InstName U2
SYMBOL source-V 2480 304 M0
WINDOW 123 28 105 Left 2
WINDOW 39 0 0 Left 2
SYMATTR Value2 AC 1
SYMATTR InstName V2
SYMATTR Value SINE(0 10 1k)
SYMBOL EIT_Semiconductors\\op_3 2704 416 R0
SYMATTR InstName U4
SYMATTR Value Vp=5 Vm={Vmstep} Ilim=20m
SYMBOL source-Vmarker 2432 752 R0
SYMATTR Value V={Rf}
SYMATTR InstName U6
SYMBOL source-Vmarker 2432 784 R0
SYMATTR Value V={Rb}
SYMATTR InstName U7
SYMBOL source-Vmarker 2432 816 R0
SYMATTR Value V={Rg}
SYMATTR InstName U8
SYMBOL res 3456 704 M270
WINDOW 0 25 56 VTop 2
WINDOW 3 7 56 VBottom 2
SYMATTR InstName Rf2
SYMATTR Value {Rf}
SYMBOL res 3248 704 R270
WINDOW 0 25 56 VTop 2
WINDOW 3 7 56 VBottom 2
SYMATTR InstName Rg2
SYMATTR Value {Rg}
SYMBOL res 3232 368 R270
WINDOW 0 25 56 VTop 2
WINDOW 3 7 56 VBottom 2
SYMATTR InstName Rb2
SYMATTR Value {Rb}
SYMBOL source-Vmarker 3216 352 R0
SYMATTR Value V={Vref}
SYMATTR InstName U9
SYMBOL source-Vmarker 3744 368 M0
SYMATTR InstName U10
TEXT 2424 584 Left 2 ;.tran 10m
TEXT 2360 632 Left 2 ;.step param k .8 .9 .005
TEXT 2360 664 Left 2 ;.step param k 0 0.7 0.01
TEXT 2400 712 Left 2 !.tran 5m
TEXT 2696 544 Left 2 !.param deltaVpos = 20V\n.param deltaVa = 3V\n.param VaMin = 0V \n.param gain = deltaVa / deltaVpos\n \n.param Rg = 5k\n.param Rf = Rg*gain\n.param Rb = {Rf*Rg/(Rf+Rg)}\n.param Vref = 1/2 * deltaVa/(1+Rf/Rg)\n;.param Vref = 30/17\n.param k=0.42
TEXT 2304 240 Left 3 ;LTC6360 Dimensionierung
TEXT 2776 248 Left 2 !; LTC6360 generiert -0.6V\n.param Vmstep = -.6
RECTANGLE Normal 3040 832 2272 208 2
