Version 4
SHEET 1 4200 952
WIRE 2352 -48 1696 -48
WIRE 2352 -16 2352 -48
WIRE 2288 0 1808 0
WIRE 1648 80 1552 80
WIRE 1776 80 1648 80
WIRE 1856 80 1776 80
WIRE 1952 80 1856 80
WIRE 2352 80 2352 64
WIRE 1552 96 1552 80
WIRE 1952 96 1952 80
WIRE 976 128 944 128
WIRE 992 128 976 128
WIRE 1648 160 1648 80
WIRE 1856 160 1856 80
WIRE 2288 192 2288 0
WIRE 2352 192 2352 160
WIRE 2352 192 2288 192
WIRE 1376 208 1328 208
WIRE 1472 208 1456 208
WIRE 1552 208 1552 176
WIRE 1552 208 1536 208
WIRE 1584 208 1552 208
WIRE 1952 208 1952 176
WIRE 1952 208 1920 208
WIRE 1968 208 1952 208
WIRE 2048 208 2032 208
WIRE 2176 208 2128 208
WIRE 880 256 832 256
WIRE 928 256 880 256
WIRE 1040 256 928 256
WIRE 720 272 720 256
WIRE 800 272 720 272
WIRE 928 272 928 256
WIRE 1648 288 1648 256
WIRE 1696 288 1696 -48
WIRE 1696 288 1648 288
WIRE 1808 288 1808 0
WIRE 1856 288 1856 256
WIRE 1856 288 1808 288
WIRE 1648 320 1648 288
WIRE 1856 320 1856 288
WIRE 1696 336 1696 288
WIRE 1808 336 1808 288
WIRE 1040 352 1040 256
WIRE 1136 352 1040 352
WIRE 928 368 928 352
WIRE 928 368 832 368
WIRE 1328 368 1328 208
WIRE 1328 368 1200 368
WIRE 1376 368 1328 368
WIRE 1472 368 1456 368
WIRE 1552 368 1536 368
WIRE 1584 368 1552 368
WIRE 1952 368 1920 368
WIRE 1968 368 1952 368
WIRE 2048 368 2032 368
WIRE 2176 368 2176 208
WIRE 2176 368 2128 368
WIRE 1136 384 1040 384
WIRE 1552 400 1552 368
WIRE 1952 400 1952 368
WIRE 720 464 720 272
WIRE 928 480 928 448
WIRE 928 480 880 480
WIRE 928 496 928 480
WIRE 1552 496 1552 480
WIRE 1648 496 1648 416
WIRE 1696 496 1696 400
WIRE 1808 496 1808 400
WIRE 1856 496 1856 416
WIRE 1952 496 1952 480
WIRE 928 592 928 576
WIRE 1040 592 1040 384
WIRE 1040 592 928 592
WIRE 832 672 832 368
WIRE 1136 672 832 672
WIRE 2176 688 2176 368
WIRE 2176 688 1200 688
WIRE 1136 704 1040 704
WIRE 928 720 928 592
WIRE 720 736 720 544
WIRE 800 832 800 272
WIRE 880 832 800 832
WIRE 928 832 928 800
WIRE 928 832 880 832
WIRE 1040 832 1040 704
WIRE 1040 832 928 832
WIRE 720 848 720 736
FLAG 1648 496 0
FLAG 1552 496 0
FLAG 1856 496 0
FLAG 1952 496 0
FLAG 1776 80 +30V
FLAG 1808 496 0
FLAG 1696 496 0
FLAG 880 480 0
FLAG 880 256 in1
FLAG 880 832 in2
FLAG 976 128 +30V
FLAG 832 256 0
FLAG 720 736 0
SYMBOL EIT_Semiconductors\\op_3 1168 368 M180
WINDOW 123 -104 71 Left 2
WINDOW 3 -131 47 Left 2
SYMATTR InstName U2
SYMATTR Value Vp={Vcc} Vm={-Vcc} Ilim=20m
SYMBOL res 1360 384 R270
WINDOW 0 25 56 VTop 2
WINDOW 3 7 56 VBottom 2
SYMATTR InstName R1
SYMATTR Value 270
SYMBOL res 1360 224 R270
WINDOW 0 25 56 VTop 2
WINDOW 3 7 56 VBottom 2
SYMATTR InstName R2
SYMATTR Value 270
SYMBOL res 1536 80 R0
SYMATTR InstName R3
SYMATTR Value 1k
SYMBOL res 1536 384 R0
SYMATTR InstName R4
SYMATTR Value 11k
SYMBOL zener 1536 352 R90
WINDOW 0 0 32 VBottom 2
WINDOW 3 32 32 VTop 2
SYMATTR InstName D1
SYMATTR Value BZX84C15L
SYMATTR Description Diode
SYMATTR Type diode
SYMBOL zener 1472 224 R270
WINDOW 0 32 32 VTop 2
WINDOW 3 0 32 VBottom 2
SYMATTR InstName D2
SYMATTR Value BZX84C15L
SYMATTR Description Diode
SYMATTR Type diode
SYMBOL EIT_Semiconductors\\npn 1584 320 R0
SYMATTR InstName Q1
SYMBOL EIT_Semiconductors\\pnp 1584 256 M180
SYMATTR InstName Q2
SYMBOL res 2144 384 M270
WINDOW 0 25 56 VTop 2
WINDOW 3 7 56 VBottom 2
SYMATTR InstName R5
SYMATTR Value 270
SYMBOL res 2144 224 M270
WINDOW 0 25 56 VTop 2
WINDOW 3 7 56 VBottom 2
SYMATTR InstName R6
SYMATTR Value 270
SYMBOL res 1968 80 M0
SYMATTR InstName R7
SYMATTR Value 1k
SYMBOL res 1968 384 M0
SYMATTR InstName R8
SYMATTR Value 11k
SYMBOL zener 1968 352 M90
WINDOW 0 0 32 VBottom 2
WINDOW 3 32 32 VTop 2
SYMATTR InstName D3
SYMATTR Value BZX84C15L
SYMATTR Description Diode
SYMATTR Type diode
SYMBOL zener 2032 224 M270
WINDOW 0 32 32 VTop 2
WINDOW 3 0 32 VBottom 2
SYMATTR InstName D4
SYMATTR Value BZX84C15L
SYMATTR Description Diode
SYMATTR Type diode
SYMBOL EIT_Semiconductors\\npn 1920 320 M0
SYMATTR InstName Q3
SYMBOL EIT_Semiconductors\\pnp 1920 256 R180
SYMATTR InstName Q4
SYMBOL schottky 1680 400 M180
WINDOW 0 24 72 Left 2
WINDOW 3 19 -48 Left 2
SYMATTR InstName D5
SYMATTR Value MBRS340
SYMATTR Description Diode
SYMATTR Type diode
SYMBOL schottky 1824 400 R180
WINDOW 0 24 72 Left 2
WINDOW 3 24 0 Left 2
SYMATTR InstName D6
SYMATTR Value MBRS340
SYMATTR Description Diode
SYMATTR Type diode
SYMBOL EIT_Semiconductors\\op_3 1168 688 R0
WINDOW 123 -104 71 Left 2
WINDOW 3 -131 47 Left 2
SYMATTR InstName U1
SYMBOL res 912 256 R0
SYMATTR InstName R9
SYMATTR Value 150
SYMBOL res 912 352 R0
SYMATTR InstName R10
SYMATTR Value 2k2
SYMBOL res 912 480 R0
SYMATTR InstName R11
SYMATTR Value 2k2
SYMBOL res 912 704 R0
SYMATTR InstName R12
SYMATTR Value 150
SYMBOL source-Vmarker 944 128 R0
SYMATTR Value V={VCC}
SYMATTR InstName U3
SYMBOL res 2336 -32 R0
SYMATTR InstName R13
SYMATTR Value 3.5
SYMBOL source-V 720 448 R0
WINDOW 123 0 0 Left 2
WINDOW 39 0 0 Left 2
SYMATTR InstName V1
SYMATTR Value SINE(0 1m 1k)
SYMBOL ind 2336 64 R0
SYMATTR InstName L1
SYMATTR Value 170µ
TEXT 128 -112 Left 2 ;http://www.google.de/imgres?imgurl=http://www.next.gr/uploads/135-9996.png&imgrefurl=http://www.next.gr/automations/motor-control-circuits/Efficient-switching-controller-l13504.html&h=834&w=999&tbnid=rK20DR-iq6StpM:&zoom=1&tbnh=95&tbnw=114&usg=__dsLIYO4T9_Cpei_BN-Q9kCb2uoo=&docid=07zXmje4tf2HYM&client=ubuntu
TEXT 880 80 Left 2 !.param VCC = 25V
TEXT 126 936 Left 2 !.tran 5m
