Version 4
SHEET 1 2536 3012
WIRE 1152 160 1136 160
WIRE 1248 160 1232 160
WIRE 1312 160 1248 160
WIRE 1152 224 1136 224
WIRE 1248 224 1232 224
WIRE 1312 224 1248 224
WIRE 1104 384 1072 384
WIRE 1136 384 1104 384
WIRE 1248 384 1216 384
WIRE 1072 416 1072 384
WIRE 1776 416 1776 400
WIRE 1536 432 1504 432
WIRE 1648 432 1616 432
WIRE 1728 432 1648 432
WIRE 1744 432 1728 432
WIRE 1856 448 1808 448
WIRE 1952 448 1856 448
WIRE 2032 448 1952 448
WIRE 1728 464 1712 464
WIRE 1744 464 1728 464
WIRE 1648 480 1648 432
WIRE 1776 496 1776 480
WIRE 1072 512 1072 496
WIRE 2032 528 2032 448
WIRE 1648 592 1648 560
WIRE 1904 592 1904 576
WIRE 1136 624 1120 624
WIRE 1168 624 1136 624
WIRE 1264 624 1248 624
WIRE 2032 640 2032 608
WIRE 1712 656 1712 464
WIRE 1744 656 1712 656
WIRE 1856 656 1856 448
WIRE 1856 656 1808 656
WIRE 1648 672 1648 656
WIRE 1904 672 1904 656
WIRE 1200 688 1184 688
WIRE 1136 704 1136 624
WIRE 1168 704 1136 704
WIRE 1264 720 1232 720
WIRE 1296 720 1264 720
WIRE 1168 736 1136 736
WIRE 1200 752 1184 752
WIRE 1648 768 1648 752
WIRE 1712 784 1712 656
WIRE 1728 784 1712 784
WIRE 2032 784 2032 720
WIRE 2032 784 1808 784
WIRE 1040 800 1024 800
WIRE 1136 800 1136 736
WIRE 1136 800 1120 800
WIRE 1152 800 1136 800
WIRE 1264 800 1264 720
WIRE 1264 800 1232 800
WIRE 2032 816 2032 784
WIRE 2032 848 2032 816
WIRE 1216 928 1184 928
WIRE 1264 928 1216 928
WIRE 1312 928 1264 928
WIRE 1328 928 1312 928
WIRE 2032 960 2032 928
WIRE 1888 976 1888 960
WIRE 1808 1056 1808 1040
WIRE 1888 1056 1888 1024
FLAG 1072 512 0
FLAG 1312 928 R
FLAG 1104 384 in
FLAG 1264 1008 0
FLAG 1264 624 0
FLAG 1264 720 sum
FLAG 1200 688 -12V
FLAG 1200 752 +12V
FLAG 1024 800 sum-
FLAG 2032 960 0
FLAG 1952 448 out7
FLAG 2032 816 shunt7
FLAG 1728 432 +
FLAG 1728 464 -
FLAG 1904 672 0
FLAG 1504 432 in
FLAG 1904 496 0
FLAG 1040 624 0
FLAG 1648 768 0
FLAG 1808 1056 0
FLAG 1888 1056 0
FLAG 1312 224 V-
FLAG 1312 160 V+
FLAG 1248 288 0
FLAG 1248 96 0
FLAG 1776 400 V+
FLAG 1776 496 V-
FLAG 1888 960 0
DATAFLAG 1216 928 "round(1/10*$)*10"
SYMBOL source-V 1072 400 R0
WINDOW 123 28 105 Left 2
WINDOW 39 0 0 Left 2
SYMATTR Value2 AC 1
SYMATTR InstName V1
SYMATTR Value PULSE(0 2.5 2m 10u)
SYMBOL source-Vmarker 1184 928 R0
SYMATTR Value V={1/(2*pi*70k*1n)}
SYMATTR InstName U6
SYMBOL res 1248 912 R0
SYMATTR InstName R17
SYMATTR Value 10
SYMBOL res 1024 608 M90
WINDOW 0 7 56 VBottom 2
WINDOW 3 25 56 VTop 2
SYMATTR InstName R25
SYMATTR Value 3k3
SYMBOL Opamps\\LT1468 1200 784 M180
WINDOW 0 -20 64 Left 2
WINDOW 3 -115 65 Left 2
SYMATTR InstName U11
SYMBOL res 1024 784 M90
WINDOW 0 7 56 VBottom 2
WINDOW 3 25 56 VTop 2
SYMATTR InstName R26
SYMATTR Value 3k3
SYMBOL res 1136 784 M90
WINDOW 0 7 56 VBottom 2
WINDOW 3 25 56 VTop 2
SYMATTR InstName R27
SYMATTR Value 3k3
SYMBOL res 1152 608 M90
WINDOW 0 7 56 VBottom 2
WINDOW 3 25 56 VTop 2
SYMATTR InstName R28
SYMATTR Value 3k3
SYMBOL res 1120 400 R270
WINDOW 0 25 56 VTop 2
WINDOW 3 7 56 VBottom 2
SYMATTR InstName R19
SYMATTR Value 1k
SYMBOL res 1664 576 R180
WINDOW 0 36 76 Left 2
WINDOW 3 36 40 Left 2
SYMATTR InstName R10
SYMATTR Value 150R
SYMBOL res 1824 768 R90
WINDOW 0 0 56 VBottom 2
WINDOW 3 32 56 VTop 2
SYMATTR InstName R29
SYMATTR Value 1k
SYMBOL res 1920 592 R180
WINDOW 0 36 76 Left 2
WINDOW 3 36 40 Left 2
SYMATTR InstName R30
SYMATTR Value 1
SYMBOL cap 1632 592 R0
SYMATTR InstName C6
SYMATTR Value 2n
SYMBOL ind 2016 512 R0
SYMATTR InstName L3
SYMATTR Value 30µ
SYMBOL res 2016 832 R0
SYMATTR InstName Rsh7
SYMATTR Value 0.1
SYMBOL res 2016 624 R0
SYMATTR InstName Rm1
SYMATTR Value 4
SYMBOL Opamps\\opamp2 1776 512 M180
SYMATTR InstName U1
SYMATTR Value lm675
SYMBOL cap 1888 592 R0
SYMATTR InstName C7
SYMATTR Value 220n
SYMBOL res 1520 448 R270
WINDOW 0 25 56 VTop 2
WINDOW 3 7 56 VBottom 2
SYMATTR InstName R32
SYMATTR Value 1k
SYMBOL res 1632 656 R0
SYMATTR InstName R35
SYMATTR Value 1t
SYMBOL crtl-V-V 1808 944 M0
WINDOW 3 14 89 Left 2
SYMATTR Value {Kf}
SYMATTR InstName E3
SYMBOL res 1136 240 R270
WINDOW 0 25 56 VTop 2
WINDOW 3 7 56 VBottom 2
SYMATTR InstName R1
SYMATTR Value .1
SYMBOL cap 1232 224 R0
WINDOW 0 41 37 Left 2
WINDOW 3 44 57 Left 2
SYMATTR InstName C3
SYMATTR Value 1000µ
SYMBOL cap 1232 96 R0
WINDOW 0 44 16 Left 2
WINDOW 3 41 41 Left 2
SYMATTR InstName C4
SYMATTR Value 1000µ
SYMBOL res 1136 176 R270
WINDOW 0 25 56 VTop 2
WINDOW 3 7 56 VBottom 2
SYMATTR InstName R2
SYMATTR Value .1
SYMBOL source-Vmarker 1136 160 R0
SYMATTR Value V=20V
SYMATTR InstName U2
SYMBOL source-Vmarker 1136 224 R0
SYMATTR Value V=-20V
SYMATTR InstName U5
TEXT 1440 216 Left 2 !.tran 0 6m 1m
TEXT 1416 248 Left 2 ;.ac oct 100 10 1meg
TEXT 1624 152 Left 2 !.param cp=220p\n.param Kp=1
TEXT 1432 280 Left 2 ;.dc V1 -2 2 0.01
TEXT 1416 152 Left 2 !.include LM358.lib\n.include OPA404.LIB
TEXT 1792 152 Left 2 !.param Cf = 1n\n.param Rf = {1/(2*pi*70k*1n)}
TEXT 2016 408 Left 2 ;Galvo
TEXT 1424 120 Left 2 !.inc Z:\\home\\mainster\\CODES_local\\LTSpice_projects\\lib_mdb\\MDB_sub\\LM675.lib
TEXT 1672 232 Left 2 ;R10=150\nC6=2n\nC3=100p
TEXT 1872 232 Left 2 !.param Kf 1
TEXT 1848 272 Left 2 !.step param Kf list 1 10 100
RECTANGLE Normal 2128 752 1984 432 2
