Version 4
SHEET 1 2164 1604
WIRE 1392 -224 1392 -240
WIRE 1456 -224 1456 -240
WIRE 1392 -208 1392 -224
WIRE 1456 -208 1456 -224
WIRE 1392 -112 1392 -128
WIRE 1456 -112 1456 -128
WIRE 1680 -16 1264 -16
WIRE 2160 -16 1760 -16
WIRE 672 48 672 32
WIRE 1888 48 1888 32
WIRE 2000 112 1984 112
WIRE 1504 128 1488 128
WIRE 1968 128 1968 96
WIRE 1984 128 1984 112
WIRE 448 144 432 144
WIRE 672 144 672 112
WIRE 672 144 528 144
WIRE 688 144 672 144
WIRE 1264 144 1264 -16
WIRE 1376 144 1264 144
WIRE 1408 144 1376 144
WIRE 1424 144 1408 144
WIRE 1472 144 1472 112
WIRE 1488 144 1488 128
WIRE 1888 144 1888 128
WIRE 1952 144 1888 144
WIRE 1424 160 1424 144
WIRE 1456 160 1424 160
WIRE 2160 160 2160 -16
WIRE 2160 160 2016 160
WIRE 1568 176 1520 176
WIRE 1600 176 1568 176
WIRE 1632 176 1600 176
WIRE 1744 176 1712 176
WIRE 1776 176 1744 176
WIRE 1888 176 1856 176
WIRE 1952 176 1888 176
WIRE 560 192 544 192
WIRE 672 192 640 192
WIRE 688 192 672 192
WIRE 1456 192 1424 192
WIRE 1952 192 1952 176
WIRE 1408 208 1376 208
WIRE 1424 208 1424 192
WIRE 1424 208 1408 208
WIRE 1888 208 1888 176
WIRE 1984 208 1984 192
WIRE 2000 208 1984 208
WIRE 432 224 432 144
WIRE 544 224 544 192
WIRE 672 224 672 192
WIRE 1488 224 1488 208
WIRE 1504 224 1488 224
WIRE 1600 240 1600 176
WIRE 1632 240 1600 240
WIRE 1744 240 1744 176
WIRE 1744 240 1712 240
WIRE 1264 256 1264 144
WIRE 1376 256 1376 208
WIRE 1472 272 1472 208
WIRE 1504 272 1472 272
WIRE 1584 272 1568 272
WIRE 1968 272 1968 192
WIRE 2000 272 1968 272
WIRE 2080 272 2064 272
WIRE 1472 288 1472 272
WIRE 1968 288 1968 272
WIRE 432 320 432 304
WIRE 544 320 544 304
WIRE 672 320 672 288
WIRE 1888 336 1888 288
WIRE 1920 336 1888 336
WIRE 1888 368 1888 336
WIRE 1888 464 1888 448
FLAG 432 320 0
FLAG 544 320 0
FLAG 688 192 V-
FLAG 688 144 V+
FLAG 672 320 0
FLAG 672 32 0
FLAG 1504 224 V+
FLAG 1504 128 V-
FLAG 1456 -112 V-
FLAG 1472 112 0
FLAG 1584 272 0
FLAG 1456 -224 mute3
FLAG 1472 288 mute
FLAG 1888 464 0
FLAG 1920 336 in2
FLAG 1568 176 outOp
FLAG 1408 144 in+
FLAG 1408 208 in-
FLAG 1376 336 0
FLAG 1264 336 0
FLAG 2000 208 V+
FLAG 2000 112 V-
FLAG 1968 96 0
FLAG 1968 288 mute3
FLAG 1392 -112 V-
FLAG 1392 -224 mute
FLAG 1888 32 0
FLAG 2080 272 0
SYMBOL source-V 432 208 R0
WINDOW 123 0 0 Left 2
WINDOW 39 0 0 Left 2
SYMATTR InstName V2
SYMATTR Value 30V
SYMBOL source-V 544 208 R0
WINDOW 123 0 0 Left 2
WINDOW 39 0 0 Left 2
SYMATTR InstName V3
SYMATTR Value -30V
SYMBOL res 432 160 R270
WINDOW 0 25 56 VTop 2
WINDOW 3 7 56 VBottom 2
SYMATTR InstName R3
SYMATTR Value .1
SYMBOL res 544 208 R270
WINDOW 0 25 56 VTop 2
WINDOW 3 7 56 VBottom 2
SYMATTR InstName R4
SYMATTR Value .1
SYMBOL cap 656 224 R0
SYMATTR InstName C1
SYMATTR Value 1000µ
SYMBOL cap 656 48 R0
SYMATTR InstName C2
SYMATTR Value 1000µ
SYMBOL EXTRA\\AudioOpamp\\NS\\LM3886-1 1488 240 M180
WINDOW 0 8 143 Left 2
WINDOW 3 54 129 Left 2
SYMATTR InstName U3
SYMBOL cap 1392 208 R180
WINDOW 0 24 64 Left 2
WINDOW 3 24 8 Left 2
SYMATTR InstName C4
SYMATTR Value 220p
SYMBOL ind 1728 160 R90
WINDOW 0 6 56 VBottom 2
WINDOW 3 30 56 VTop 2
SYMATTR InstName L1
SYMATTR Value 700n
SYMBOL res 1728 224 R90
WINDOW 0 7 56 VBottom 2
WINDOW 3 25 56 VTop 2
SYMATTR InstName R16
SYMATTR Value 10
SYMBOL source-V 1888 352 R0
WINDOW 3 22 97 Left 2
WINDOW 123 32 64 Left 2
WINDOW 39 0 0 Left 2
SYMATTR Value SINE(0 0.1 5k)
SYMATTR Value2 AC 1
SYMATTR InstName V4
SYMBOL res 1440 -224 R0
SYMATTR InstName R1
SYMATTR Value 10k
SYMBOL res 1360 240 R0
SYMATTR InstName R2
SYMATTR Value 49.9
SYMBOL cap 1504 288 R270
WINDOW 0 32 32 VTop 2
WINDOW 3 0 32 VBottom 2
SYMATTR InstName C3
SYMATTR Value 100n
SYMBOL res 1760 192 R270
WINDOW 0 25 56 VTop 2
WINDOW 3 7 56 VBottom 2
SYMATTR InstName R7
SYMATTR Value 200k
SYMBOL res 1248 240 R0
SYMATTR InstName R5
SYMATTR Value 49.9
SYMBOL EXTRA\\AudioOpamp\\NS\\LM3886-1 1984 224 M180
WINDOW 0 8 143 Left 2
WINDOW 3 54 129 Left 2
SYMATTR InstName U1
SYMBOL res 1376 -224 R0
SYMATTR InstName R6
SYMATTR Value 10k
SYMBOL res 1872 32 R0
SYMATTR InstName R8
SYMATTR Value 49.9
SYMBOL res 1872 192 R0
SYMATTR InstName R9
SYMATTR Value 200k
SYMBOL cap 2000 288 R270
WINDOW 0 32 32 VTop 2
WINDOW 3 0 32 VBottom 2
SYMATTR InstName C5
SYMATTR Value 100n
SYMBOL res 1776 -32 R90
WINDOW 0 7 56 VBottom 2
WINDOW 3 25 56 VTop 2
SYMATTR InstName R10
SYMATTR Value 24.9k
TEXT 1048 16 Left 2 ;.tran 0 10m 1m
TEXT 1024 48 Left 2 !.ac oct 100 10 1meg
