Version 4
SHEET 1 3028 3012
WIRE 1584 256 1552 256
WIRE 1616 256 1584 256
WIRE 1552 288 1552 256
WIRE 1248 432 1248 416
WIRE 1024 528 1008 528
WIRE 1248 528 1248 496
WIRE 1248 528 1104 528
WIRE 1264 528 1248 528
WIRE 1136 576 1120 576
WIRE 1248 576 1216 576
WIRE 1264 576 1248 576
WIRE 1008 608 1008 528
WIRE 1120 608 1120 576
WIRE 1248 608 1248 576
WIRE 1008 704 1008 688
WIRE 1120 704 1120 688
WIRE 1248 704 1248 672
WIRE 1520 896 1520 880
WIRE 1280 912 1248 912
WIRE 1392 912 1360 912
WIRE 1472 912 1392 912
WIRE 1488 912 1472 912
WIRE 1600 928 1552 928
WIRE 1648 928 1600 928
WIRE 1696 928 1648 928
WIRE 1776 928 1696 928
WIRE 1472 944 1456 944
WIRE 1488 944 1472 944
WIRE 1392 960 1392 912
WIRE 1520 976 1520 960
WIRE 1648 976 1648 928
WIRE 1776 1008 1776 928
WIRE 1392 1072 1392 1040
WIRE 1648 1072 1648 1056
WIRE 1776 1120 1776 1088
WIRE 1456 1136 1456 944
WIRE 1488 1136 1456 1136
WIRE 1600 1136 1600 928
WIRE 1600 1136 1552 1136
WIRE 1648 1152 1648 1136
WIRE 1392 1168 1392 1136
WIRE 1456 1168 1456 1136
WIRE 1456 1168 1392 1168
WIRE 1712 1232 1552 1232
WIRE 1456 1264 1456 1168
WIRE 1472 1264 1456 1264
WIRE 1552 1264 1552 1232
WIRE 1712 1264 1712 1232
WIRE 1776 1264 1776 1200
WIRE 1776 1264 1712 1264
WIRE 1712 1280 1712 1264
WIRE 1776 1296 1776 1264
WIRE 1776 1328 1776 1296
WIRE 1632 1360 1632 1344
WIRE 1712 1360 1712 1328
WIRE 1776 1440 1776 1408
WIRE 1296 1536 1296 1520
WIRE 1328 1536 1296 1536
WIRE 1296 1552 1296 1536
WIRE 1408 1664 1408 1648
WIRE 1424 1664 1424 1648
WIRE 1136 1680 1104 1680
WIRE 1248 1680 1216 1680
WIRE 1376 1680 1248 1680
WIRE 1392 1680 1376 1680
WIRE 1568 1696 1456 1696
WIRE 1616 1696 1568 1696
WIRE 1696 1696 1616 1696
WIRE 1248 1712 1248 1680
WIRE 1376 1712 1328 1712
WIRE 1392 1712 1376 1712
WIRE 1696 1728 1696 1696
WIRE 1424 1744 1424 1728
WIRE 1568 1744 1568 1696
WIRE 1408 1776 1408 1728
WIRE 1248 1824 1248 1792
WIRE 1568 1840 1568 1824
WIRE 1696 1840 1696 1808
WIRE 1248 1904 1248 1888
WIRE 1328 1904 1328 1712
WIRE 1328 1904 1248 1904
WIRE 1360 1904 1328 1904
WIRE 1520 1904 1504 1904
WIRE 1568 1920 1568 1904
WIRE 1328 1984 1328 1904
WIRE 1344 1984 1328 1984
WIRE 1520 1984 1520 1904
WIRE 1520 1984 1424 1984
WIRE 1696 1984 1696 1920
WIRE 1696 1984 1520 1984
WIRE 1696 2000 1696 1984
WIRE 1696 2096 1696 2080
FLAG 1008 704 0
FLAG 1120 704 0
FLAG 1264 576 V-
FLAG 1264 528 V+
FLAG 1248 704 0
FLAG 1248 416 0
FLAG 1584 256 in
FLAG 1776 1440 0
FLAG 1520 880 V-
FLAG 1696 928 out7
FLAG 1776 1296 shunt7
FLAG 1472 912 +
FLAG 1472 944 -
FLAG 1648 1152 0
FLAG 1248 912 in
FLAG 1120 576 VEE
FLAG 1008 528 VCC
FLAG 1632 1360 0
FLAG 1712 1360 0
FLAG 1520 976 V+
FLAG 1552 368 0
FLAG 1696 2096 0
FLAG 1424 1648 V-
FLAG 1616 1696 out2
FLAG 1376 1680 +2
FLAG 1376 1712 -2
FLAG 1568 1920 0
FLAG 1104 1680 in
FLAG 1424 1744 V+
FLAG 1408 1776 mute2
FLAG 1408 1648 0
FLAG 1392 1536 0
FLAG 1296 1552 mu8
FLAG 1296 1440 V-
SYMBOL source-V 1008 592 R0
WINDOW 123 0 0 Left 2
WINDOW 39 0 0 Left 2
SYMATTR InstName V2
SYMATTR Value 20
SYMBOL source-V 1120 592 R0
WINDOW 123 0 0 Left 2
WINDOW 39 0 0 Left 2
SYMATTR InstName V3
SYMATTR Value -20
SYMBOL res 1008 544 R270
WINDOW 0 25 56 VTop 2
WINDOW 3 7 56 VBottom 2
SYMATTR InstName R3
SYMATTR Value .1
SYMBOL res 1120 592 R270
WINDOW 0 25 56 VTop 2
WINDOW 3 7 56 VBottom 2
SYMATTR InstName R4
SYMATTR Value .1
SYMBOL cap 1232 608 R0
SYMATTR InstName C1
SYMATTR Value 1000µ
SYMBOL cap 1232 432 R0
SYMATTR InstName C2
SYMATTR Value 1000µ
SYMBOL source-V 1552 272 R0
WINDOW 123 28 105 Left 2
WINDOW 39 0 0 Left 2
SYMATTR Value2 AC 1
SYMATTR InstName V1
SYMATTR Value SINE(0 1 1k)
SYMBOL res 1408 1056 R180
WINDOW 0 36 76 Left 2
WINDOW 3 36 40 Left 2
SYMATTR InstName R10
SYMATTR Value 1500R
SYMBOL res 1568 1248 R90
WINDOW 0 0 56 VBottom 2
WINDOW 3 32 56 VTop 2
SYMATTR InstName R29
SYMATTR Value 1k
SYMBOL res 1664 1072 R180
WINDOW 0 36 76 Left 2
WINDOW 3 36 40 Left 2
SYMATTR InstName R30
SYMATTR Value 1
SYMBOL cap 1376 1072 R0
SYMATTR InstName C6
SYMATTR Value .20n
SYMBOL ind 1760 992 R0
SYMATTR InstName L3
SYMATTR Value 170µ
SYMBOL res 1760 1312 R0
SYMATTR InstName Rsh7
SYMATTR Value 0.1
SYMBOL res 1760 1104 R0
SYMATTR InstName Rm1
SYMATTR Value 3.5
SYMBOL Opamps\\opamp2 1520 992 M180
SYMATTR InstName U1
SYMATTR Value lm675
SYMBOL cap 1632 1072 R0
SYMATTR InstName C7
SYMATTR Value 220n
SYMBOL res 1264 928 R270
WINDOW 0 25 56 VTop 2
WINDOW 3 7 56 VBottom 2
SYMATTR InstName R32
SYMATTR Value 1k
SYMBOL crtl-V-V 1632 1248 M0
WINDOW 3 14 89 Left 2
SYMATTR Value 5
SYMATTR InstName E3
SYMBOL cap 1552 1120 R90
WINDOW 0 0 32 VBottom 2
WINDOW 3 32 32 VTop 2
SYMATTR InstName C11
SYMATTR Value 470p
SYMBOL res 1232 1808 M180
WINDOW 0 36 76 Left 2
WINDOW 3 36 40 Left 2
SYMATTR InstName R1
SYMATTR Value 150
SYMBOL res 1584 1840 R180
WINDOW 0 36 76 Left 2
WINDOW 3 36 40 Left 2
SYMATTR InstName R2
SYMATTR Value 1
SYMBOL cap 1232 1824 R0
SYMATTR InstName C3
SYMATTR Value 2n
SYMBOL ind 1680 1712 R0
SYMATTR InstName L1
SYMATTR Value 170µ
SYMBOL res 1680 1984 R0
SYMATTR InstName Rsh1
SYMATTR Value 0.1
SYMBOL res 1680 1824 R0
SYMATTR InstName Rm2
SYMATTR Value 3.5
SYMBOL cap 1552 1840 R0
SYMATTR InstName C4
SYMATTR Value 220n
SYMBOL res 1120 1696 R270
WINDOW 0 25 56 VTop 2
WINDOW 3 7 56 VBottom 2
SYMATTR InstName R5
SYMATTR Value 1k
SYMBOL res 1328 2000 R270
WINDOW 0 25 56 VTop 2
WINDOW 3 7 56 VBottom 2
SYMATTR InstName R6
SYMATTR Value 50
SYMBOL MDB_sym\\LM3886_sml 1424 1696 M180
SYMATTR InstName U2
SYMBOL cap 1424 1888 R90
WINDOW 0 0 32 VBottom 2
WINDOW 3 32 32 VTop 2
SYMATTR InstName C5
SYMATTR Value 50p
SYMBOL res 1520 1888 R90
WINDOW 0 7 56 VBottom 2
WINDOW 3 25 56 VTop 2
SYMATTR InstName R7
SYMATTR Value 10
SYMBOL res 1312 1536 R180
WINDOW 0 36 76 Left 2
WINDOW 3 36 40 Left 2
SYMATTR InstName R8
SYMATTR Value 10k
SYMBOL cap 1392 1520 R90
WINDOW 0 0 32 VBottom 2
WINDOW 3 32 32 VTop 2
SYMATTR InstName C8
SYMATTR Value 100n
TEXT 1480 624 Left 2 !.tran 0 6m 1m
TEXT 1456 656 Left 2 ;.ac oct 100 10 1meg
TEXT 2016 328 Left 2 !.param cp=220p\n.param Kp=1
TEXT 1904 552 Left 3 ;1/(jwC) / ( R+1/(jwC) ) = 1/ (jwRC+1)\nmit jw=:s und R*C=Tau\nG(s)=1/(s*RC+1) und pol bei G(s)=1/2=-3dB\ns*T=1   =>   jw = 1/T\nG(s) soll auf die Form 1/(s*a+1) gebracht \nwerden und a ist gesucht, also \n \nG(s) = 1/()
TEXT 1472 688 Left 2 ;.dc V1 -2 2 0.01
TEXT 1456 560 Left 2 !.include LM358.lib\n.include OPA404.LIB
TEXT 2040 944 Left 2 !.param Cf = 1n\n.param Rf = {1/(2*pi*70k*1n)}
TEXT 1928 912 Left 2 ;.step param Cf list 1n 1e-20
TEXT 2008 240 Left 2 ;.option noopiter
TEXT 1760 888 Left 2 ;Galvo
TEXT 1464 528 Left 2 !.inc Z:\\home\\mainster\\CODES_local\\LTSpice_projects\\lib_mdb\\MDB_sub\\LM675.lib
TEXT 1184 1048 Left 2 ;R10=150\nC6=2n\nC3=100p
TEXT 1680 1656 Left 2 ;Galvo
TEXT 1336 1848 Left 2 !.param C3 = 100p
RECTANGLE Normal 1872 1232 1728 912 2
RECTANGLE Normal 1792 1952 1648 1680 2
