Version 4
SHEET 1 2136 968
WIRE 32 -48 32 -64
WIRE 192 -48 192 -64
WIRE 304 -48 304 -64
WIRE -96 32 -176 32
WIRE 32 32 32 16
WIRE 32 32 -16 32
WIRE 192 32 192 16
WIRE 304 32 304 16
WIRE 304 32 192 32
WIRE 528 32 304 32
WIRE -176 48 -176 32
WIRE 32 64 32 32
WIRE 192 64 192 32
WIRE 304 64 304 32
WIRE 400 128 384 128
WIRE 416 128 400 128
WIRE 496 128 480 128
WIRE -176 144 -176 128
WIRE 400 224 400 128
WIRE 400 224 384 224
WIRE 416 224 400 224
WIRE 496 224 480 224
WIRE 192 304 192 288
WIRE -176 320 -224 320
WIRE -64 320 -96 320
WIRE 32 320 32 288
WIRE 32 320 -64 320
WIRE 304 320 304 288
WIRE 528 320 528 32
WIRE 528 320 304 320
WIRE -64 336 -64 320
WIRE 32 336 32 320
WIRE 528 336 528 320
WIRE -224 384 -224 320
WIRE -64 432 -64 416
WIRE 32 432 32 400
WIRE 32 432 -64 432
WIRE 128 432 128 288
WIRE 128 432 32 432
WIRE 144 432 128 432
WIRE 240 432 224 432
WIRE 288 432 240 432
WIRE 528 432 528 416
WIRE 240 448 240 432
WIRE -224 480 -224 464
WIRE 240 528 240 512
FLAG 192 304 0
FLAG 528 432 0
FLAG 496 128 0
FLAG 496 224 0
FLAG 240 528 0
FLAG 32 -64 0
FLAG -176 144 0
FLAG -224 320 HVIN
FLAG 288 432 OUT
FLAG -224 480 0
FLAG 192 -64 0
FLAG 304 -64 0
SYMBOL Opamps\\LTC6360 192 176 R0
SYMATTR InstName U1
SYMBOL voltage 528 320 R0
WINDOW 123 24 138 Left 2
WINDOW 39 24 117 Left 2
SYMATTR InstName V1
SYMATTR Value 5
SYMBOL cap 480 208 R90
WINDOW 0 0 32 VBottom 2
WINDOW 3 32 32 VTop 2
SYMATTR InstName C1
SYMATTR Value 10
SYMBOL cap 416 144 R270
WINDOW 0 32 32 VTop 2
WINDOW 3 0 32 VBottom 2
SYMATTR InstName C2
SYMATTR Value .1
SYMBOL res -80 320 R0
SYMATTR InstName R1
SYMATTR Value 2K
SYMBOL res 128 448 R270
WINDOW 0 32 56 VTop 2
WINDOW 3 0 56 VBottom 2
SYMATTR InstName R2
SYMATTR Value 10
SYMBOL res -80 304 R90
WINDOW 0 0 56 VBottom 2
WINDOW 3 32 56 VTop 2
SYMATTR InstName R3
SYMATTR Value 10K
SYMBOL cap 224 448 R0
SYMATTR InstName C3
SYMATTR Value 330p
SYMBOL res 0 16 R90
WINDOW 0 0 56 VBottom 2
WINDOW 3 32 56 VTop 2
SYMATTR InstName R4
SYMATTR Value 1.67K
SYMBOL cap 16 -48 R0
SYMATTR InstName C4
SYMATTR Value 0.1
SYMBOL voltage -176 32 R0
WINDOW 123 24 138 Left 2
WINDOW 39 24 117 Left 2
SYMATTR InstName V2
SYMATTR Value 1.67
SYMBOL voltage -224 368 R0
WINDOW 123 24 138 Left 2
WINDOW 39 24 117 Left 2
SYMATTR InstName V3
SYMATTR Value SINE(0 10 1000 0.1m)
SYMBOL cap 288 -48 R0
SYMATTR InstName C5
SYMATTR Value 0.1
SYMBOL cap 176 -48 R0
SYMATTR InstName C6
SYMATTR Value 1
SYMBOL cap 16 336 R0
SYMATTR InstName C7
SYMATTR Value 10p
TEXT 408 512 Left 2 !.tran 5m
TEXT 176 -96 Bottom 2 ;LTC6360 - Very Low Noise Single-Ended SAR ADC Driver with True Zero Output\n10V Input Signal to a 5V Single-Ended ADC Driver\nInput: 10Vp-p     Output: 0 to 4 Full Scale
TEXT -504 536 Left 2 ;Note:\n  If the simulation model is not found please update with the "Sync Release" command from the "Tools" menu.\n  It remains the customer's responsibility to verify proper and reliable operation in the actual application.\n  Component substitution and printed circuit board layout may significantly affect circuit performance or reliability.\n  Contact your local sales representative for assistance. This circuit is distributed to customers only for use with LTC parts.\n  Copyright  2013 Linear Technology Inc. All rights reserved.
