Version 4
SHEET 1 880 680
WIRE -880 -512 -912 -512
WIRE -784 -512 -880 -512
WIRE -576 -512 -640 -512
WIRE -544 -512 -576 -512
WIRE -912 -480 -912 -512
WIRE -112 -384 -128 -384
WIRE -96 -384 -112 -384
WIRE 32 -384 -16 -384
WIRE 144 -384 32 -384
WIRE 192 -384 144 -384
WIRE 32 -368 32 -384
WIRE -544 -336 -560 -336
WIRE -528 -336 -544 -336
WIRE -416 -336 -448 -336
WIRE -272 -336 -336 -336
WIRE -240 -336 -272 -336
WIRE -880 -304 -880 -336
WIRE -336 -288 -336 -336
WIRE 32 -272 32 -304
WIRE -480 -208 -528 -208
WIRE -448 -208 -480 -208
WIRE 80 -208 32 -208
WIRE 112 -208 80 -208
WIRE -880 -192 -880 -224
WIRE -528 -192 -528 -208
WIRE -336 -192 -336 -208
WIRE 32 -192 32 -208
WIRE -640 -176 -656 -176
WIRE -608 -176 -640 -176
WIRE -80 -176 -96 -176
WIRE -48 -176 -80 -176
WIRE -528 -96 -528 -112
WIRE 32 -96 32 -112
WIRE -496 -48 -544 -48
WIRE -464 -48 -496 -48
WIRE -544 -32 -544 -48
WIRE 96 -32 48 -32
WIRE 128 -32 96 -32
WIRE -656 -16 -672 -16
WIRE -624 -16 -656 -16
WIRE 48 -16 48 -32
WIRE -64 0 -80 0
WIRE -32 0 -64 0
WIRE -544 64 -544 48
WIRE 48 80 48 64
FLAG -336 -192 0
FLAG 32 -272 0
FLAG -272 -336 out_LR
FLAG 144 -384 out_RC
FLAG -112 -384 in2
FLAG -544 -336 in2
FLAG -528 -96 0
FLAG -480 -208 out_LRu_s
FLAG -608 -128 0
FLAG -640 -176 in2
FLAG -544 64 0
FLAG -496 -48 out_LRi_s
FLAG -624 32 0
FLAG -656 -16 in2
FLAG 48 80 0
FLAG 96 -32 out_RCu_s
FLAG -32 48 0
FLAG -64 0 in2
FLAG 32 -96 0
FLAG 80 -208 out_RCi_s
FLAG -48 -128 0
FLAG -80 -176 in2
FLAG -880 -512 in2
FLAG -912 -400 0
FLAG -576 -512 in2a
FLAG -880 -192 0
SYMBOL ind -544 -320 R270
WINDOW 0 30 56 VTop 2
WINDOW 3 6 56 VBottom 2
SYMATTR InstName L1
SYMATTR Value 170µ
SYMBOL res -352 -304 R0
SYMATTR InstName Rsh1
SYMATTR Value .01
SYMBOL res -432 -320 R270
WINDOW 0 25 56 VTop 2
WINDOW 3 7 56 VBottom 2
SYMATTR InstName Rm1
SYMATTR Value 1.5
SYMBOL res -112 -368 R270
WINDOW 0 25 56 VTop 2
WINDOW 3 7 56 VBottom 2
SYMATTR InstName R1
SYMATTR Value 1k
SYMBOL cap 16 -368 R0
SYMATTR InstName C1
SYMATTR Value 220n
SYMBOL crtl-V-V -528 -208 R0
SYMATTR InstName E1
SYMATTR Value laplace=(58.82)/(s+8882.0)
SYMBOL crtl-V-V -544 -48 R0
SYMATTR InstName E2
SYMATTR Value laplace=(5882.0)/(s+8882.0)
SYMBOL crtl-V-V 48 -32 R0
SYMATTR InstName E3
SYMATTR Value laplace=(4545.0)/(s+4545.0)
SYMBOL crtl-V-V 32 -208 R0
SYMATTR InstName E4
SYMATTR Value laplace=(4.545)/(s+4545.0)
SYMBOL modulate2 -784 -512 R0
WINDOW 3 16 -24 Left 2
SYMATTR InstName A1
SYMATTR Value mark=100k, space=500
SYMBOL source-Vmarker -784 -448 R0
SYMATTR InstName U1
SYMBOL source-V -912 -496 R0
WINDOW 123 28 105 Left 2
WINDOW 39 0 0 Left 2
WINDOW 3 -120 126 Left 2
SYMATTR Value2 AC 1
SYMATTR InstName V1
SYMATTR Value PULSE(0 1 0 10m)
SYMBOL bv -880 -320 R0
SYMATTR InstName B1
SYMATTR Value V=log10(TIME/100m)
TEXT -80 -448 Left 2 ;laplace=(s)/(s+4545.0)
TEXT -88 -472 Left 2 ;laplace=(0.001*s)/(s+4545.0)
TEXT -1034 102 Left 2 !.ac oct 100 1 100k
