Version 4
SHEET 1 880 836
WIRE -624 -576 -656 -576
WIRE -496 -576 -544 -576
WIRE -448 -576 -496 -576
WIRE -352 -576 -368 -576
WIRE -1504 -560 -1536 -560
WIRE -1376 -560 -1424 -560
WIRE -1328 -560 -1376 -560
WIRE -1232 -560 -1248 -560
WIRE -496 -480 -496 -576
WIRE -464 -480 -496 -480
WIRE -432 -480 -432 -496
WIRE -1376 -464 -1376 -560
WIRE -1344 -464 -1376 -464
WIRE -1312 -464 -1312 -480
WIRE -352 -464 -352 -576
WIRE -352 -464 -400 -464
WIRE -304 -464 -352 -464
WIRE -208 -464 -224 -464
WIRE -176 -464 -208 -464
WIRE -144 -464 -176 -464
WIRE -1232 -448 -1232 -560
WIRE -1232 -448 -1280 -448
WIRE -1152 -448 -1232 -448
WIRE -1104 -448 -1152 -448
WIRE -848 -448 -960 -448
WIRE -832 -448 -848 -448
WIRE -720 -448 -832 -448
WIRE -608 -448 -640 -448
WIRE -464 -448 -608 -448
WIRE -1680 -432 -1760 -432
WIRE -1488 -432 -1680 -432
WIRE -1344 -432 -1488 -432
WIRE -432 -432 -432 -448
WIRE -208 -432 -208 -464
WIRE -1312 -416 -1312 -432
WIRE -848 -416 -848 -448
WIRE -608 -416 -608 -448
WIRE -1488 -400 -1488 -432
WIRE -1760 -368 -1760 -432
WIRE -960 -368 -960 -448
WIRE -496 -368 -496 -480
WIRE -1376 -352 -1376 -464
WIRE -704 -336 -704 -368
WIRE -1584 -320 -1584 -352
WIRE -848 -320 -848 -336
WIRE -608 -320 -608 -336
WIRE -208 -320 -208 -368
WIRE -1488 -304 -1488 -320
WIRE -1760 -272 -1760 -288
WIRE -960 -272 -960 -288
WIRE -704 -240 -704 -256
WIRE -496 -240 -496 -288
WIRE -496 -240 -704 -240
WIRE -1584 -224 -1584 -240
WIRE -1376 -224 -1376 -272
WIRE -1376 -224 -1584 -224
WIRE -704 -224 -704 -240
WIRE -496 -224 -496 -240
WIRE -1584 -208 -1584 -224
WIRE -1376 -208 -1376 -224
WIRE -496 -144 -496 -160
WIRE -1376 -128 -1376 -144
WIRE -704 -112 -704 -144
WIRE -1584 -96 -1584 -128
WIRE -1552 352 -1584 352
WIRE -1424 352 -1472 352
WIRE -1376 352 -1424 352
WIRE -1280 352 -1296 352
WIRE -1424 448 -1424 352
WIRE -1392 448 -1424 448
WIRE -1360 448 -1360 432
WIRE -1280 464 -1280 352
WIRE -1280 464 -1328 464
WIRE -1232 464 -1280 464
WIRE -1136 464 -1152 464
WIRE -1104 464 -1136 464
WIRE -1072 464 -1104 464
WIRE -1776 480 -1888 480
WIRE -1760 480 -1776 480
WIRE -1648 480 -1760 480
WIRE -1536 480 -1568 480
WIRE -1392 480 -1536 480
WIRE -1360 496 -1360 480
WIRE -1136 496 -1136 464
WIRE -1776 512 -1776 480
WIRE -1536 512 -1536 480
WIRE -1888 560 -1888 480
WIRE -1424 560 -1424 448
WIRE -1632 592 -1632 560
WIRE -1776 608 -1776 592
WIRE -1536 608 -1536 592
WIRE -1136 608 -1136 560
WIRE -1888 656 -1888 640
WIRE -1632 688 -1632 672
WIRE -1424 688 -1424 640
WIRE -1424 688 -1632 688
WIRE -1632 704 -1632 688
WIRE -1424 704 -1424 688
WIRE -1424 784 -1424 768
WIRE -1632 816 -1632 784
FLAG -1312 -480 Vp
FLAG -1312 -416 Vm
FLAG -1488 -304 0
FLAG -1536 -560 0
FLAG -1376 -128 0
FLAG -1152 -448 inadequate
FLAG -1680 -432 Input
FLAG -1760 -272 0
FLAG -432 -496 Vp
FLAG -432 -432 Vm
FLAG -608 -320 0
FLAG -656 -576 0
FLAG -496 -144 0
FLAG -176 -464 better
FLAG -832 -448 Input2
FLAG -848 -320 0
FLAG -208 -320 0
FLAG -960 -272 0
FLAG -1360 432 Vp
FLAG -1360 496 Vm
FLAG -1536 608 0
FLAG -1584 352 0
FLAG -1424 784 0
FLAG -1104 464 better
FLAG -1760 480 Input2
FLAG -1776 608 0
FLAG -1136 608 0
FLAG -1888 656 0
SYMBOL res -1344 -544 R270
WINDOW 0 25 56 VTop 2
WINDOW 3 7 56 VBottom 2
SYMATTR InstName R1
SYMATTR Value 220
SYMBOL res -1520 -544 R270
WINDOW 0 25 56 VTop 2
WINDOW 3 7 56 VBottom 2
SYMATTR InstName R2
SYMATTR Value 220
SYMBOL res -1504 -416 R0
SYMATTR InstName R3
SYMATTR Value 51
SYMBOL cap -1392 -208 R0
SYMATTR InstName C1
SYMATTR Value 430pf
SYMBOL res -1392 -368 R0
SYMATTR InstName R4
SYMATTR Value 4.7k
SYMBOL res -1600 -336 R0
SYMATTR InstName R5
SYMATTR Value 800
SYMBOL res -1600 -224 R0
SYMATTR InstName R6
SYMATTR Value 1.2k
SYMBOL source-Vmarker -1584 -352 R0
SYMATTR InstName U2
SYMBOL source-Vmarker -1584 -96 R0
SYMATTR Value V=-5V
SYMATTR InstName U3
SYMBOL source-V -1760 -384 M0
WINDOW 123 0 0 Left 2
WINDOW 39 0 0 Left 2
WINDOW 3 47 91 Right 2
SYMATTR Value 1
SYMATTR InstName V1
SYMBOL res -464 -560 R270
WINDOW 0 25 56 VTop 2
WINDOW 3 7 56 VBottom 2
SYMATTR InstName R7
SYMATTR Value 220
SYMBOL res -640 -560 R270
WINDOW 0 25 56 VTop 2
WINDOW 3 7 56 VBottom 2
SYMATTR InstName R8
SYMATTR Value 22
SYMBOL res -624 -432 R0
SYMATTR InstName R9
SYMATTR Value 47
SYMBOL cap -512 -224 R0
SYMATTR InstName C2
SYMATTR Value 3.9n
SYMBOL res -512 -384 R0
SYMATTR InstName R10
SYMATTR Value 430
SYMBOL res -720 -352 R0
SYMATTR InstName R11
SYMATTR Value 800
SYMBOL res -720 -240 R0
SYMATTR InstName R12
SYMATTR Value 1.2k
SYMBOL source-Vmarker -704 -368 R0
SYMATTR InstName U5
SYMBOL source-Vmarker -704 -112 R0
SYMATTR Value V=-5V
SYMATTR InstName U6
SYMBOL res -624 -464 R90
WINDOW 0 7 56 VBottom 2
WINDOW 3 25 56 VTop 2
SYMATTR InstName R13
SYMATTR Value 220
SYMBOL res -832 -432 M0
SYMATTR InstName R14
SYMATTR Value 62
SYMBOL res -208 -480 R90
WINDOW 0 7 56 VBottom 2
WINDOW 3 25 56 VTop 2
SYMATTR InstName R15
SYMATTR Value 47
SYMBOL cap -224 -432 R0
SYMATTR InstName C3
SYMATTR Value 22p
SYMBOL source-V -960 -384 M0
WINDOW 123 0 0 Left 2
WINDOW 39 0 0 Left 2
WINDOW 3 47 91 Right 2
SYMATTR Value SINE(0 10 5k)
SYMATTR InstName V2
SYMBOL EIT_Semiconductors\\op_3 -1312 -448 R0
SYMATTR InstName U1
SYMATTR Value Vp={Vs} Vm={-Vs} Ilim=20m
SYMBOL EIT_Semiconductors\\op_3 -432 -464 R0
SYMATTR InstName U4
SYMATTR Value Vp={Vs} Vm={-Vs} Ilim=20m
SYMBOL source-Vmarker -1792 -848 R0
SYMATTR Value V=15V
SYMATTR InstName U7
SYMBOL source-Vmarker -1792 -784 R0
SYMATTR Value V=-15V
SYMATTR InstName U8
SYMBOL res -1392 368 R270
WINDOW 0 25 56 VTop 2
WINDOW 3 7 56 VBottom 2
SYMATTR InstName R16
SYMATTR Value 220
SYMBOL res -1568 368 R270
WINDOW 0 25 56 VTop 2
WINDOW 3 7 56 VBottom 2
SYMATTR InstName R17
SYMATTR Value 22
SYMBOL res -1552 496 R0
SYMATTR InstName R18
SYMATTR Value 47
SYMBOL cap -1440 704 R0
SYMATTR InstName C4
SYMATTR Value 3.9n
SYMBOL res -1440 544 R0
SYMATTR InstName R19
SYMATTR Value 430
SYMBOL res -1648 576 R0
SYMATTR InstName R20
SYMATTR Value {Roff*set}
SYMBOL res -1648 688 R0
SYMATTR InstName R21
SYMATTR Value {Roff*(1-set)}
SYMBOL source-Vmarker -1632 560 R0
SYMATTR InstName U9
SYMBOL source-Vmarker -1632 816 R0
SYMATTR Value V=-5V
SYMATTR InstName U10
SYMBOL res -1552 464 R90
WINDOW 0 7 56 VBottom 2
WINDOW 3 25 56 VTop 2
SYMATTR InstName R22
SYMATTR Value 220
SYMBOL res -1760 496 M0
SYMATTR InstName R23
SYMATTR Value 62t
SYMBOL res -1136 448 R90
WINDOW 0 7 56 VBottom 2
WINDOW 3 25 56 VTop 2
SYMATTR InstName R24
SYMATTR Value 47
SYMBOL cap -1152 496 R0
SYMATTR InstName C5
SYMATTR Value 22p
SYMBOL source-V -1888 544 M0
WINDOW 123 0 0 Left 2
WINDOW 39 0 0 Left 2
WINDOW 3 47 91 Right 2
SYMATTR Value SINE(0 10 5k)
SYMATTR InstName V3
SYMBOL EIT_Semiconductors\\op_3 -1360 464 R0
SYMATTR InstName U11
SYMATTR Value Vp={Vs} Vm={-Vs} Ilim=20m
TEXT -1344 -752 Left 2 ;.noise V(better) V5 oct 100 10 100k
TEXT -1560 -16 Left 2 ;ABCs of ADCs - Rev 3, June 2006\nAuthored by: Nicholas “Nick” Gray
TEXT -1360 -720 Left 2 ;.noise V(inadequate) V4 oct 100 10 100k
TEXT -1822 32 Left 2 !.tran 1m
TEXT -1752 -640 Left 2 !.param Vs=15
TEXT -1920 336 Left 2 !.param Roff=2k\n.param set=0.5
