Version 4
SHEET 1 1212 1364
WIRE 224 -992 224 -1040
WIRE 224 -944 224 -992
WIRE -192 -896 -192 -944
WIRE -960 -880 -960 -928
WIRE -864 -880 -864 -928
WIRE 320 -864 288 -864
WIRE 432 -864 320 -864
WIRE -448 -848 -448 -896
WIRE -192 -848 -192 -896
WIRE 320 -832 320 -864
WIRE 432 -832 432 -864
WIRE -352 -768 -384 -768
WIRE -96 -768 -128 -768
WIRE -48 -768 -96 -768
WIRE -960 -752 -960 -800
WIRE -912 -752 -960 -752
WIRE -864 -752 -864 -800
WIRE -864 -752 -912 -752
WIRE -352 -736 -352 -768
WIRE -96 -736 -96 -768
WIRE -912 -720 -912 -752
WIRE 224 -720 224 -784
WIRE 320 -720 320 -752
WIRE 320 -720 224 -720
WIRE 320 -688 320 -720
WIRE -48 -656 -48 -768
WIRE -448 -640 -448 -688
WIRE -352 -640 -352 -656
WIRE -352 -640 -448 -640
WIRE -192 -640 -192 -688
WIRE -96 -640 -96 -656
WIRE -96 -640 -192 -640
WIRE 224 -640 224 -720
WIRE 256 -640 224 -640
WIRE -192 -608 -192 -640
WIRE -448 -576 -448 -640
WIRE -448 -576 -560 -576
WIRE -448 -544 -448 -576
WIRE 320 -528 320 -592
WIRE 432 -528 432 -752
WIRE 432 -528 320 -528
WIRE -192 -512 -192 -544
WIRE -96 -512 -192 -512
WIRE -48 -512 -48 -576
WIRE -48 -512 -96 -512
WIRE 320 -464 320 -528
WIRE -448 -448 -448 -464
WIRE -96 -432 -96 -512
WIRE 320 -368 320 -384
WIRE -96 -336 -96 -352
WIRE -912 -256 -928 -256
WIRE -832 -256 -832 -288
WIRE -832 -256 -912 -256
WIRE -832 -224 -832 -256
WIRE -864 -208 -880 -208
WIRE -928 -176 -928 -256
WIRE -896 -176 -928 -176
WIRE -880 -128 -880 -208
WIRE -848 -128 -880 -128
WIRE 352 -96 320 -96
WIRE 384 -96 352 -96
WIRE -544 -80 -544 -144
WIRE -432 -80 -432 -144
WIRE -832 -64 -832 -128
WIRE 384 -64 384 -96
WIRE -544 32 -544 0
WIRE -480 32 -544 32
WIRE -432 32 -432 0
WIRE -432 32 -480 32
WIRE -480 48 -480 32
WIRE 384 80 384 16
WIRE 384 80 240 80
WIRE 240 96 240 80
WIRE 80 112 64 112
WIRE 80 128 80 112
WIRE -32 144 -64 144
WIRE 48 144 -32 144
WIRE 192 160 112 160
WIRE 384 160 384 80
WIRE 48 176 0 176
WIRE 80 208 80 192
WIRE 80 208 64 208
WIRE 240 208 240 192
WIRE 320 208 240 208
WIRE 240 224 240 208
WIRE -176 256 -208 256
WIRE -144 256 -176 256
WIRE -208 288 -208 256
WIRE 0 336 0 176
WIRE 240 336 240 304
WIRE 240 336 0 336
WIRE 384 336 384 256
WIRE 384 336 240 336
WIRE 384 384 384 336
WIRE -208 400 -208 368
WIRE 384 496 384 464
WIRE 368 560 336 560
WIRE 400 560 368 560
WIRE 400 592 400 560
WIRE 400 720 400 672
WIRE 400 720 256 720
WIRE 256 736 256 720
WIRE 96 752 80 752
WIRE 96 768 96 752
WIRE 0 784 -32 784
WIRE 64 784 0 784
WIRE 208 800 128 800
WIRE 400 800 400 720
WIRE 64 816 16 816
WIRE 96 848 96 832
WIRE 96 848 80 848
WIRE 256 848 256 832
WIRE 336 848 256 848
WIRE 256 864 256 848
WIRE 16 976 16 816
WIRE 256 976 256 944
WIRE 256 976 16 976
WIRE 400 976 400 896
WIRE 400 976 256 976
WIRE 400 1024 400 976
WIRE 400 1136 400 1104
FLAG -480 48 0
FLAG -544 -144 Vm
FLAG -432 -144 Vp
FLAG 64 208 Vp
FLAG 64 112 Vm
FLAG 384 496 0
FLAG -32 144 in2
FLAG -208 400 0
FLAG -176 256 in
FLAG 352 -96 Vp
FLAG -448 -896 Vplus
FLAG -448 -448 0
FLAG -192 -896 Vplus
FLAG -96 -336 0
FLAG 224 -992 Vplus
FLAG 320 -368 0
FLAG 224 -720 bcl
FLAG -912 -720 0
FLAG -864 -928 Vmin
FLAG -960 -928 Vplus
FLAG 80 848 Vp
FLAG 80 752 Vm
FLAG 400 1136 0
FLAG 368 560 Vp
FLAG 0 784 in2
FLAG -832 -368 0
FLAG -832 -64 0
FLAG -912 -256 bc
FLAG -864 -208 bc
SYMBOL Opamps\\LT1001 80 224 M180
SYMATTR InstName U1
SYMBOL voltage -544 -96 R0
WINDOW 123 0 0 Left 2
WINDOW 39 0 0 Left 2
SYMATTR InstName V1
SYMATTR Value {-Vsup}
SYMBOL voltage -432 -96 R0
WINDOW 123 0 0 Left 2
WINDOW 39 0 0 Left 2
SYMATTR InstName V2
SYMATTR Value {Vsup}
SYMBOL EIT_Semiconductors\\njf 192 96 R0
SYMATTR InstName J1
SYMATTR Value 2N3819
SYMBOL EIT_Semiconductors\\npn 320 160 R0
SYMATTR InstName Q1
SYMATTR Value Q2N2222A
SYMBOL res 224 208 R0
SYMATTR InstName R1
SYMATTR Value 10k
SYMBOL res 368 368 R0
SYMATTR InstName R2
SYMATTR Value 1k
SYMBOL voltage -208 272 R0
WINDOW 123 0 0 Left 2
WINDOW 39 0 0 Left 2
SYMATTR InstName V3
SYMATTR Value PULSE(0 1 1m 10n)
SYMBOL res 368 -80 R0
SYMATTR InstName R3
SYMATTR Value 100
SYMBOL source-Vmarker -64 144 R0
SYMATTR Value V=1V
SYMATTR InstName U2
SYMBOL LM334 -448 -768 R0
SYMATTR InstName U4
SYMBOL res -368 -752 R0
SYMATTR InstName R7
SYMATTR Value {Rset}
SYMBOL res -464 -560 R0
SYMATTR InstName R8
SYMATTR Value 100
SYMBOL LM334 -192 -768 R0
SYMATTR InstName U5
SYMBOL res -112 -752 R0
SYMATTR InstName R9
SYMATTR Value 48.52
SYMBOL diode -208 -608 R0
SYMATTR InstName D1
SYMATTR Value 1N4148
SYMBOL res -64 -672 R0
SYMATTR InstName R10
SYMATTR Value {48.52*6.0815}
SYMBOL res -112 -448 R0
SYMATTR InstName R11
SYMATTR Value 100
SYMBOL LM334 224 -864 R0
SYMATTR InstName U6
SYMBOL res 304 -848 R0
SYMATTR InstName R12
SYMATTR Value 48.52
SYMBOL res 416 -848 R0
SYMATTR InstName R13
SYMATTR Value {48.52*6.0815}
SYMBOL res 304 -480 R0
SYMATTR InstName R14
SYMATTR Value 100
SYMBOL source-V -960 -896 R0
WINDOW 123 0 0 Left 2
WINDOW 39 0 0 Left 2
WINDOW 3 -87 97 Left 2
SYMATTR Value 12
SYMATTR InstName V4
SYMBOL source-V -864 -896 R0
WINDOW 123 0 0 Left 2
WINDOW 39 0 0 Left 2
WINDOW 3 19 95 Left 2
SYMATTR Value -12
SYMATTR InstName V5
SYMBOL EIT_Semiconductors\\njf 208 736 R0
SYMATTR InstName J2
SYMATTR Value 2N3819
SYMBOL EIT_Semiconductors\\npn 336 800 R0
SYMATTR InstName Q2
SYMATTR Value Q2N2222A
SYMBOL res 240 848 R0
SYMATTR InstName R4
SYMATTR Value 10k
SYMBOL res 384 1008 R0
SYMATTR InstName R5
SYMATTR Value 1k
SYMBOL res 384 576 R0
SYMATTR InstName R6
SYMATTR Value 100
SYMBOL pbss4350z 256 -688 R0
SYMATTR InstName U7
SYMBOL source-I -832 -288 R180
WINDOW 0 29 73 Left 2
WINDOW 3 29 17 Left 2
WINDOW 123 0 0 Left 2
WINDOW 39 0 0 Left 2
SYMATTR InstName I1
SYMATTR Value 3m
SYMBOL pbss4350z -896 -224 R0
SYMATTR InstName U3
TEXT -216 -144 Left 2 !.param Vsup=30\n.param Ik=3.9m\n.param R1=10k\n.param R2=20k\n.param rail=0
TEXT 400 32 Left 2 ;Iout=Vin/R2
TEXT -240 -1048 Left 2 !.op
TEXT -1000 -560 Left 2 !.step TEMP 0 100 1
TEXT -824 -672 Left 2 !.param Rset=17.36
TEXT -768 -344 Left 2 ;tempco of 1N914 measured:\n-1.66702mV/K ????\n-2.03mV/K
