Version 4
SHEET 1 880 888
WIRE 272 -144 240 -144
WIRE 48 -64 16 -64
WIRE 144 -64 112 -64
WIRE 240 -64 240 -144
WIRE 144 -48 144 -64
WIRE 176 -48 144 -48
WIRE 240 -48 240 -64
WIRE 256 -48 240 -48
WIRE 144 -32 144 -48
WIRE 16 32 16 -64
WIRE 144 80 144 48
WIRE 16 144 16 112
WIRE 144 192 144 160
WIRE 176 528 112 528
WIRE 464 560 336 560
WIRE -80 592 -144 592
WIRE 32 592 32 528
WIRE 32 592 0 592
WIRE 64 592 32 592
WIRE 336 592 336 560
WIRE 464 592 464 560
WIRE 176 608 176 528
WIRE 176 608 128 608
WIRE 256 608 176 608
WIRE 64 624 48 624
WIRE -144 656 -144 592
WIRE 464 704 464 672
WIRE -144 768 -144 736
WIRE 464 832 464 784
FLAG 144 192 0
FLAG 16 144 0
FLAG 336 -48 0
FLAG 352 -144 0
FLAG -144 768 0
FLAG 48 624 0
FLAG 256 656 0
FLAG 336 672 0
FLAG 464 832 0
SYMBOL ind 128 -48 R0
SYMATTR InstName L1
SYMATTR Value 170µ
SYMBOL res 128 64 R0
SYMATTR InstName R1
SYMATTR Value 1.51
SYMBOL source-V 16 16 R0
WINDOW 3 -94 251 Left 2
WINDOW 123 0 0 Left 2
WINDOW 39 0 0 Left 2
SYMATTR InstName V1
SYMATTR Value PULSE(0 {Vstep} 0 {Utr})
SYMBOL source-I 256 -48 R270
WINDOW 0 27 40 VTop 2
WINDOW 3 -25 106 VBottom 2
WINDOW 123 0 0 Left 2
WINDOW 39 -1 40 VTop 2
SYMATTR InstName I1
SYMATTR Value PULSE(0 {Iin} 0 {tir})
SYMATTR SpiceLine load
SYMBOL Misc\\jumper 208 -128 R0
SYMATTR InstName X1
SYMBOL Misc\\jumper 80 -128 R0
SYMATTR InstName X2
SYMBOL res 368 -160 R90
WINDOW 0 0 56 VBottom 2
WINDOW 3 32 56 VTop 2
SYMATTR InstName R2
SYMATTR Value 1
SYMBOL source-V -144 640 R0
WINDOW 3 -219 168 Left 2
WINDOW 123 0 0 Left 2
WINDOW 39 0 0 Left 2
SYMATTR InstName V2
SYMATTR Value PULSE({-Ustim} {Ustim} 0 1n 1n {1/(2*fstim)} {1/fstim})
SYMBOL EIT_Semiconductors\\op_3 96 608 R0
WINDOW 123 -139 71 Left 2
WINDOW 3 -139 48 Left 2
SYMATTR InstName U1
SYMATTR Value2 FT=10Meg SR={SR}
SYMATTR Value Vp=100 Vm=-100 Ilim=20m
SYMBOL res -96 608 R270
WINDOW 0 32 56 VTop 2
WINDOW 3 0 56 VBottom 2
SYMATTR InstName R3
SYMATTR Value 10k
SYMBOL res 16 544 R270
WINDOW 0 32 56 VTop 2
WINDOW 3 0 56 VBottom 2
SYMATTR InstName R4
SYMATTR Value {Aop*10k}
SYMBOL crtl-V-V 336 576 R0
SYMATTR InstName E1
SYMATTR Value 1
SYMBOL ind 448 576 R0
SYMATTR InstName L2
SYMATTR Value {Lc}
SYMBOL res 448 688 R0
SYMATTR InstName R5
SYMATTR Value {Rc}
TEXT -40 -128 Left 2 !.param Vstep = 30\n;.step param Vstep 1 10 0.1
TEXT -402 512 Left 2 !.tran {3/fstim} startup
TEXT -24 376 Left 2 !.param tr = 1n\n;.step param tr 1n 1u 50n
TEXT 264 72 Left 2 !.param Iin=1A\n.param tir=1u\n.param Utr=1u
TEXT -376 624 Left 2 !.param Ustim=1V\n.param fstim=100\n.param Aop=1\n.param Rc=1\n.param Lc=170u\n.param SR=10
TEXT -368 872 Left 2 !.step param SR 0.1 2 0.2
