Version 4
SHEET 1 900 876
WIRE 96 80 -64 80
WIRE 304 80 160 80
WIRE -400 96 -544 96
WIRE -160 96 -336 96
WIRE -688 272 -784 272
WIRE -544 272 -544 96
WIRE -544 272 -640 272
WIRE -496 272 -544 272
WIRE -160 272 -160 96
WIRE -160 272 -240 272
WIRE -64 272 -64 80
WIRE -64 272 -160 272
WIRE -48 272 -64 272
WIRE 0 272 -48 272
WIRE 304 272 304 80
WIRE 304 272 256 272
WIRE 352 272 304 272
WIRE 464 272 352 272
WIRE 464 320 464 272
WIRE -160 336 -160 272
WIRE 352 352 352 272
WIRE -688 416 -688 320
WIRE -688 416 -864 416
WIRE 464 416 464 384
WIRE 544 416 512 416
WIRE -864 448 -864 416
WIRE -368 480 -368 368
WIRE -368 480 -544 480
WIRE -160 480 -160 400
WIRE -160 480 -368 480
WIRE 128 480 128 368
WIRE 128 480 -160 480
WIRE 352 480 352 416
WIRE 352 480 128 480
WIRE 464 480 464 464
WIRE 464 480 352 480
WIRE 512 480 512 464
WIRE 512 480 464 480
WIRE 560 480 512 480
WIRE 464 496 464 480
WIRE 512 496 512 480
WIRE -160 528 -160 480
WIRE 352 528 352 480
WIRE 544 544 544 416
WIRE 544 544 512 544
WIRE -864 560 -864 528
WIRE -640 560 -640 320
WIRE -640 560 -864 560
WIRE 464 560 464 544
WIRE -864 576 -864 560
WIRE 128 576 128 480
WIRE 544 576 544 544
WIRE -688 624 -688 416
WIRE -640 624 -640 560
WIRE -368 624 -368 480
WIRE -688 672 -784 672
WIRE -512 672 -640 672
WIRE -432 672 -512 672
WIRE -224 672 -304 672
WIRE -160 672 -160 592
WIRE -160 672 -224 672
WIRE -64 672 -160 672
WIRE 0 672 -64 672
WIRE 304 672 256 672
WIRE 352 672 352 592
WIRE 352 672 304 672
WIRE 464 672 464 624
WIRE 464 672 352 672
WIRE -160 688 -160 672
WIRE 544 704 544 656
WIRE -512 800 -512 672
WIRE -400 800 -512 800
WIRE -224 800 -224 672
WIRE -224 800 -336 800
WIRE -64 832 -64 672
WIRE 96 832 -64 832
WIRE 304 832 304 672
WIRE 304 832 160 832
FLAG -544 480 0
FLAG -48 272 +12V
FLAG -64 672 -12V
FLAG 304 272 +5V
FLAG 304 672 -5V
FLAG -864 576 0
FLAG 544 704 0
SYMBOL Vreg\\7805 128 272 R0
SYMATTR InstName U1
SYMBOL Vreg\\7812 -368 272 R0
SYMATTR InstName U2
SYMBOL Vreg\\7905 128 672 M180
SYMATTR InstName U3
SYMBOL source-Vmarker -784 272 R0
SYMATTR Value V=30V
SYMATTR InstName U5
SYMBOL source-Vmarker -784 672 R0
SYMATTR Value V=-30V
SYMATTR InstName U6
SYMBOL MDB_sym\\LM7912 -304 656 M180
SYMATTR InstName U4
SYMBOL schottky -336 80 R90
WINDOW 0 0 32 VBottom 2
WINDOW 3 32 32 VTop 2
SYMATTR InstName D1
SYMATTR Value BAT54
SYMATTR Description Diode
SYMATTR Type diode
SYMBOL cap 336 352 R0
SYMATTR InstName C1
SYMATTR Value 220µ
SYMBOL cap 336 528 R0
SYMATTR InstName C2
SYMATTR Value 220µ
SYMBOL cap -176 528 R0
SYMATTR InstName C3
SYMATTR Value 220µ
SYMBOL cap -176 336 R0
SYMATTR InstName C4
SYMATTR Value 220µ
SYMBOL schottky 160 64 R90
WINDOW 0 0 32 VBottom 2
WINDOW 3 32 32 VTop 2
SYMATTR InstName D2
SYMATTR Value BAT54
SYMATTR Description Diode
SYMATTR Type diode
SYMBOL schottky 96 816 M90
WINDOW 0 0 32 VBottom 2
WINDOW 3 32 32 VTop 2
SYMATTR InstName D3
SYMATTR Value BAT54
SYMATTR Description Diode
SYMATTR Type diode
SYMBOL schottky -400 784 M90
WINDOW 0 0 32 VBottom 2
WINDOW 3 32 32 VTop 2
SYMATTR InstName D4
SYMATTR Value BAT54
SYMATTR Description Diode
SYMATTR Type diode
SYMBOL MDB_sym\\swMDB -656 656 R90
SYMATTR InstName U7
SYMBOL MDB_sym\\swMDB -656 288 M270
SYMATTR InstName U8
SYMBOL source-V -864 432 R0
WINDOW 123 0 0 Left 2
WINDOW 39 0 0 Left 2
SYMATTR InstName V1
SYMATTR Value PULSE(-1 1 5m 10n 10n 10m)
SYMBOL MDB_sym\\swMDB 480 448 R180
SYMATTR InstName U9
SYMBOL MDB_sym\\swMDB 480 512 M0
SYMATTR InstName U10
SYMBOL schottky 480 384 R180
WINDOW 0 24 72 Left 2
WINDOW 3 24 0 Left 2
SYMATTR InstName D5
SYMATTR Value BAT54
SYMATTR Description Diode
SYMATTR Type diode
SYMBOL schottky 480 624 R180
WINDOW 0 24 72 Left 2
WINDOW 3 24 0 Left 2
SYMATTR InstName D6
SYMATTR Value BAT54
SYMATTR Description Diode
SYMATTR Type diode
SYMBOL source-V 544 560 R0
WINDOW 123 0 0 Left 2
WINDOW 39 0 0 Left 2
SYMATTR InstName V2
SYMATTR Value PULSE(-1 1 10m 10n 10n 10m)
TEXT -632 352 Left 2 !.tran 20m
