Version 4
SHEET 1 1004 680
WIRE -144 -544 -176 -544
WIRE -48 -544 -80 -544
WIRE -320 -448 -336 -448
WIRE -288 -448 -320 -448
WIRE -176 -448 -176 -544
WIRE -176 -448 -208 -448
WIRE -144 -448 -176 -448
WIRE -48 -448 -48 -544
WIRE -48 -448 -64 -448
WIRE -336 -432 -336 -448
WIRE -176 -352 -176 -448
WIRE -144 -352 -176 -352
WIRE -48 -336 -48 -448
WIRE -48 -336 -80 -336
WIRE -16 -336 -48 -336
WIRE 16 -336 -16 -336
WIRE -144 -320 -176 -320
WIRE -288 -256 -304 -256
WIRE -176 -256 -176 -320
WIRE -176 -256 -208 -256
WIRE -176 -240 -176 -256
WIRE -176 -144 -176 -160
WIRE -320 0 -384 0
WIRE -320 32 -384 32
WIRE -320 64 -384 64
FLAG -16 -336 ADC_in
FLAG -336 -352 0
FLAG -320 -448 in1
FLAG -320 64 cRg
FLAG -320 0 cRf
FLAG -320 32 cRb
FLAG -176 -144 0
SYMBOL res -304 -240 R270
WINDOW 0 25 56 VTop 2
WINDOW 3 7 56 VBottom 2
SYMATTR InstName Rb1
SYMATTR Value {Rb}
SYMBOL res -192 -256 R0
SYMATTR InstName Rg1
SYMATTR Value {Rg}
SYMBOL source-Vmarker -304 -256 R0
SYMATTR Value V={Vref}
SYMATTR InstName U1
SYMBOL source-V -336 -448 M0
WINDOW 123 28 105 Left 2
WINDOW 39 0 0 Left 2
SYMATTR Value2 AC 1
SYMATTR InstName V1
SYMATTR Value SINE(0 10 1k)
SYMBOL EIT_Semiconductors\\op_3 -112 -336 R0
SYMATTR InstName U2
SYMATTR Value Vp=12 Vm=-12 Ilim=20m
SYMBOL source-Vmarker -384 32 R0
SYMATTR Value V={Rb}
SYMATTR InstName U4
SYMBOL source-Vmarker -384 64 R0
SYMATTR Value V={Rg}
SYMATTR InstName U5
SYMBOL res -304 -432 R270
WINDOW 0 25 56 VTop 2
WINDOW 3 7 56 VBottom 2
SYMATTR InstName Rb2
SYMATTR Value {Rb}
SYMBOL res -48 -464 R90
WINDOW 0 7 56 VBottom 2
WINDOW 3 25 56 VTop 2
SYMATTR InstName Rg2
SYMATTR Value {Rg}
SYMBOL cap -80 -560 R90
WINDOW 0 0 32 VBottom 2
WINDOW 3 32 32 VTop 2
SYMATTR InstName C1
SYMATTR Value {Cp}
TEXT -392 -168 Left 2 ;.tran 10m
TEXT -456 -120 Left 2 ;.step param k .8 .9 .005
TEXT -456 -88 Left 2 ;.step param k 0 0.7 0.01
TEXT -416 -40 Left 2 !.ac oct 1000 100 10meg
TEXT 232 -488 Left 2 !.param deltaVpos = 20V\n.param deltaVa = 3V\n.param VaMin = 0V \n.param gain = deltaVa / deltaVpos\n.param Vref=1V\n.param Rg = 22k;240k\n.param Rb = 22k;120k\n.param Cp=100p
TEXT 0 0 Left 2 ;.step param Cp list 1f 10p 1n 2.2n
RECTANGLE Normal 224 80 -544 -544 2
