*version 8.0 41875244
u 396
U? 4
R? 4
L? 5
K? 17
D? 5
C? 2
@libraries
@analysis
.TRAN 1 0 0 0
+0 0.5ms
+1 0.5ms
+2 0.3ms
+3 0.2us
.PROBE 0 0 1 1 0 3
@targets
@attributes
@translators
a 0 u 13 0 0 0 hln 100 TANGO=PCB
a 0 u 13 0 0 0 hln 100 SCICARDS=PCB
a 0 u 13 0 0 0 hln 100 PROTEL=PCB
a 0 u 13 0 0 0 hln 100 PCBOARDS=PCB
a 0 u 13 0 0 0 hln 100 PCAD=PCB
a 0 u 13 0 0 0 hln 100 PADS=PCB
a 0 u 13 0 0 0 hln 100 ORCAD=PCB
a 0 u 13 0 0 0 hln 100 EDIF=PCB
a 0 u 13 0 0 0 hln 100 CADSTAR=PCB
a 0 u 13 0 0 0 hln 100 PSPICE=PSPICE
a 0 u 13 0 0 0 hln 100 XILINX=XILINX
@setup
unconnectedPins 0
connectViaLabel 0
connectViaLocalLabels 0
NoStim4ExtIFPortsWarnings 1
AutoGenStim4ExtIFPorts 1
@index
pageloc 1 0 8438
@status
n 0 88:00:07:21:51:34;568587094 e 
s 2832 88:00:07:21:51:34;568587094 e 
*page 1 0 297 210 ma
@ports
port 3 GND 40 120 h
port 9 GND 230 100 h
port 154 GND 350 230 h
port 155 GND 390 230 h
port 156 GND 430 230 h
port 8 GND 170 120 h
port 144 GND 490 120 h
port 145 GND 590 120 h
@parts
part 7 L 190 90 h
a 0 s 0 0 0 10 hlb 100 PART=L
a 0 s 0:13 0 0 0 hln 100 PKGTYPE=
a 0 u 13 0 17 29 hln 100 VALUE=1mH
a 0 x 0:13 0 0 0 hln 100 PKGREF=L13
a 1 x 9 0 17 18 hln 100 REFDES=L13
part 111 L 470 30 h
a 0 u 13 0 -19 29 hln 100 VALUE=1mH
a 0 s 0 0 0 10 hlb 100 PART=L
a 0 s 0:13 0 0 0 hln 100 PKGTYPE=
a 0 x 0:13 0 0 0 hln 100 PKGREF=L22
a 1 x 9 0 -17 20 hln 100 REFDES=L22
part 110 L 470 90 h
a 0 x 0:13 0 0 0 hln 100 PKGREF=L23
a 1 x 9 0 -17 18 hln 100 REFDES=L23
a 0 s 0 0 0 10 hlb 100 PART=L
a 0 s 0:13 0 0 0 hln 100 PKGTYPE=
a 0 u 13 0 -19 29 hln 100 VALUE=1mH
part 139 R 520 50 v
a 0 s 0 0 0 10 hlb 100 PART=R
a 0 s 0:13 0 0 0 hln 100 PKGTYPE=
a 0 u 13 0 -5 27 hln 100 VALUE=50
a 0 a 0:13 0 0 0 hln 100 PKGREF=R2
a 1 a 9 0 17 28 hln 100 REFDES=R2
part 152 L 350 190 h
a 0 s 0 0 0 10 hlb 100 PART=L
a 0 s 0:13 0 0 0 hln 100 PKGTYPE=
a 0 u 13 0 17 29 hln 100 VALUE=100u
a 0 x 0:13 0 0 0 hln 100 PKGREF=L3
a 1 x 9 0 17 18 hln 100 REFDES=L3
part 151 R 390 190 h
a 0 s 0 0 0 10 hlb 100 PART=R
a 0 s 0:13 0 0 0 hln 100 PKGTYPE=
a 0 a 0:13 0 0 0 hln 100 PKGREF=R3
a 1 a 9 0 17 18 hln 100 REFDES=R3
part 32 BAS40 300 20 h
a 0 sp 0 0 15 25 hln 100 PART=BAS40
a 0 s 0:13 0 0 0 hln 100 PKGTYPE=
a 0 a 0:13 0 0 0 hln 100 PKGREF=D1
a 0 sp 13 0 -31 29 hln 100 MODEL=BAS40
a 0 ap 9 0 -13 18 hln 100 REFDES=D1
part 33 BAS40 300 100 h
a 0 sp 0 0 15 25 hln 100 PART=BAS40
a 0 s 0:13 0 0 0 hln 100 PKGTYPE=
a 0 a 0:13 0 0 0 hln 100 PKGREF=D2
a 0 ap 9 0 -13 18 hln 100 REFDES=D2
a 0 sp 13 0 -31 29 hln 100 MODEL=BAS40
part 6 L 190 30 h
a 0 s 0 0 0 10 hlb 100 PART=L
a 0 s 0:13 0 0 0 hln 100 PKGTYPE=
a 0 u 13 0 17 29 hln 100 VALUE=1mH
a 0 x 0:13 0 0 0 hln 100 PKGREF=L12
a 1 x 9 0 17 18 hln 100 REFDES=L12
part 35 BAS40 340 60 u
a 0 sp 0 0 15 25 hln 100 PART=BAS40
a 0 s 0:13 0 0 0 hln 100 PKGTYPE=
a 0 sp 13 0 -1 19 hln 100 MODEL=BAS40
a 0 a 0:13 0 0 0 hln 100 PKGREF=D4
a 0 ap 9 0 -1 30 hln 100 REFDES=D4
part 34 BAS40 340 140 u
a 0 sp 0 0 15 25 hln 100 PART=BAS40
a 0 s 0:13 0 0 0 hln 100 PKGTYPE=
a 0 a 0:13 0 0 0 hln 100 PKGREF=D3
a 0 ap 9 0 -1 30 hln 100 REFDES=D3
a 0 sp 13 0 -1 19 hln 100 MODEL=BAS40
part 153 C 430 190 h
a 0 x 0:13 0 0 0 hln 100 PKGREF=C3
a 1 xp 9 0 17 18 hln 100 REFDES=C3
a 0 s 0 0 0 10 hlb 100 PART=C
a 0 s 0:13 0 0 0 hln 100 PKGTYPE=
a 0 u 13 0 17 29 hln 100 VALUE=630n
part 294 K 150 170 h
a 0 sp 0:11 0 1 20 hln 100 PART=K
a 0 s 0:13 0 0 0 hln 100 PKGTYPE=
a 0 u 13 0 0 30 hln 100 L1=L11
a 0 u 13 0 0 39 hln 100 L2=L12
a 0 x 0:13 0 0 0 hln 100 PKGREF=K11
a 1 xp 9 0 0 8 hln 100 REFDES=K11
part 295 K 150 220 h
a 0 sp 0:11 0 1 20 hln 100 PART=K
a 0 s 0:13 0 0 0 hln 100 PKGTYPE=
a 0 u 13 0 0 30 hln 100 L1=L11
a 0 x 0:13 0 0 0 hln 100 PKGREF=K12
a 1 xp 9 0 0 8 hln 100 REFDES=K12
a 0 u 13 0 0 39 hln 100 L2=L13
part 296 K 150 270 h
a 0 sp 0:11 0 1 20 hln 100 PART=K
a 0 s 0:13 0 0 0 hln 100 PKGTYPE=
a 0 u 13 0 0 39 hln 100 L2=L13
a 0 x 0:13 0 0 0 hln 100 PKGREF=K13
a 1 xp 9 0 0 8 hln 100 REFDES=K13
a 0 u 13 0 0 30 hln 100 L1=L12
part 297 K 480 170 h
a 0 sp 0:11 0 1 20 hln 100 PART=K
a 0 s 0:13 0 0 0 hln 100 PKGTYPE=
a 0 x 0:13 0 0 0 hln 100 PKGREF=K21
a 1 xp 9 0 0 8 hln 100 REFDES=K21
a 0 u 13 0 0 30 hln 100 L1=L21
a 0 u 13 0 0 39 hln 100 L2=L22
part 298 K 480 220 h
a 0 sp 0:11 0 1 20 hln 100 PART=K
a 0 s 0:13 0 0 0 hln 100 PKGTYPE=
a 0 x 0:13 0 0 0 hln 100 PKGREF=K22
a 1 xp 9 0 0 8 hln 100 REFDES=K22
a 0 u 13 0 0 30 hln 100 L1=L21
a 0 u 13 0 0 39 hln 100 L2=L23
part 299 K 480 270 h
a 0 sp 0:11 0 1 20 hln 100 PART=K
a 0 s 0:13 0 0 0 hln 100 PKGTYPE=
a 0 x 0:13 0 0 0 hln 100 PKGREF=K23
a 1 xp 9 0 0 8 hln 100 REFDES=K23
a 0 u 13 0 0 30 hln 100 L1=L22
a 0 u 13 0 0 39 hln 100 L2=L23
part 4 R 100 50 v
a 1 a 9 0 17 28 hln 100 REFDES=R1
a 0 s 0 0 0 10 hlb 100 PART=R
a 0 s 0:13 0 0 0 hln 100 PKGTYPE=
a 0 a 0:13 0 0 0 hln 100 PKGREF=R1
a 0 u 13 0 -5 27 hln 100 VALUE=50
part 5 L 170 60 h
a 1 x 9 0 -17 18 hln 100 REFDES=L11
a 0 u 13 0 -19 29 hln 100 VALUE=1mH
a 0 s 0 0 0 10 hlb 100 PART=L
a 0 s 0:13 0 0 0 hln 100 PKGTYPE=
a 0 x 0:13 0 0 0 hln 100 PKGREF=L11
part 300 U-Sinus 40 70 h
a 0 u 13 13 34 34 hln 100 f=120kHz
a 0 sp 0:11 0 0 10 hlb 100 PART=U-Sinus
a 0 s 0:13 0 0 0 hln 100 PKGTYPE=
a 0 x 0:13 0 0 0 hln 100 PKGREF=Uhf
a 1 xp 9 0 0 22 hrn 100 REFDES=Uhf
a 0 u 13 13 34 24 hln 100 AMPLITUDE=0.1V
part 122 L 490 60 h
a 0 x 0:13 0 0 0 hln 100 PKGREF=L21
a 1 x 9 0 17 18 hln 100 REFDES=L21
a 0 s 0 0 0 10 hlb 100 PART=L
a 0 s 0:13 0 0 0 hln 100 PKGTYPE=
a 0 u 13 0 17 29 hln 100 VALUE=1mH
part 349 U-Sinus 590 70 h
a 0 u 13 13 34 34 hln 100 f=100kHz
a 0 sp 0:11 0 0 10 hlb 100 PART=U-Sinus
a 0 s 0:13 0 0 0 hln 100 PKGTYPE=
a 0 x 0:13 0 0 0 hln 100 PKGREF=Ulo
a 1 xp 9 0 0 22 hrn 100 REFDES=Ulo
a 0 u 13 13 34 24 hln 100 AMPLITUDE=0.5V
@conn
w 353
a 0 up 0:33 0 0 0 hln 100 V=
s 590 110 590 120 351
a 0 up 33 0 592 115 hlt 100 V=
w 148
a 0 up 0:33 0 0 0 hln 100 V=
a 0 sr 0 0 0 0 hln 100 LABEL=Ulo
s 560 50 590 50 147
a 0 sr 3 0 575 48 hcn 100 LABEL=Ulo
a 0 up 33 0 575 49 hct 100 V=
s 590 50 590 70 149
w 348
a 0 up 0:33 0 0 0 hln 100 V=
s 490 120 490 100 347
a 0 up 33 0 492 110 hlt 100 V=
w 113
a 0 up 0:33 0 0 0 hln 100 V=
a 0 sr 0:3 0 400 208 hcn 100 LABEL=Uzf
s 430 180 430 190 165
a 0 up 33 0 410 179 hct 100 V=
a 0 sr 3 0 410 178 hcn 100 LABEL=Uzf
s 390 180 390 190 200
s 390 180 430 180 345
s 350 180 390 180 222
s 350 190 350 180 157
s 430 80 430 180 161
s 470 70 470 80 242
s 470 80 470 90 369
s 430 80 470 80 169
w 19
a 0 up 0:33 0 0 0 hln 100 V=
s 190 70 190 80 248
s 190 80 190 90 373
s 190 80 230 80 20
a 0 up 33 0 210 79 hct 100 V=
s 230 80 230 100 23
w 15
a 0 up 0:33 0 0 0 hln 100 V=
s 170 50 170 60 16
s 140 50 170 50 14
a 0 up 33 0 155 49 hct 100 V=
w 141
a 0 up 0:33 0 0 0 hln 100 V=
s 490 60 490 50 140
s 490 50 520 50 142
a 0 up 33 0 505 49 hct 100 V=
w 287
a 0 up 0:33 0 0 0 hln 100 V=
s 190 10 300 10 104
a 0 up 33 0 245 9 hct 100 V=
s 190 30 190 10 36
s 300 10 300 20 40
s 300 10 340 10 285
s 340 10 340 20 49
w 93
a 0 up 0:33 0 0 0 hln 100 V=
s 300 150 190 150 283
s 190 150 190 130 63
s 300 150 300 140 74
s 340 150 300 150 61
a 0 up 33 0 240 149 hct 100 V=
s 340 140 340 150 53
w 137
a 0 up 0:33 0 0 0 hln 100 V=
s 400 10 470 10 128
a 0 up 33 0 435 9 hct 100 V=
s 470 30 470 10 120
s 400 70 400 10 126
s 340 70 400 70 123
s 340 70 340 100 320
s 340 60 340 70 106
w 138
a 0 up 0:33 0 0 0 hln 100 V=
s 400 150 470 150 135
a 0 up 33 0 451 149 hct 100 V=
s 470 150 470 130 118
s 400 90 400 150 133
s 300 90 400 90 130
s 300 90 300 100 314
s 300 60 300 90 102
w 303
a 0 up 0:33 0 0 0 hln 100 V=
s 170 120 170 100 304
a 0 up 33 0 172 110 hlt 100 V=
w 11
a 0 up 0:33 0 0 0 hln 100 V=
a 0 sr 0:3 0 80 78 hcn 100 LABEL=Uhf
s 40 50 100 50 12
a 0 sr 3 0 70 48 hcn 100 LABEL=Uhf
s 40 70 40 50 10
a 0 up 33 0 42 60 hlt 100 V=
w 307
a 0 up 0:33 0 0 0 hln 100 V=
s 40 110 40 120 306
a 0 up 33 0 42 115 hlt 100 V=
@junction
j 350 230
+ p 152 2
+ s 154
j 390 230
+ p 151 2
+ s 155
j 430 230
+ p 153 2
+ s 156
j 590 110
+ p 349 -
+ w 353
j 590 120
+ s 145
+ w 353
j 590 70
+ p 349 +
+ w 148
j 560 50
+ p 139 2
+ w 148
j 490 100
+ p 122 2
+ w 348
j 490 120
+ s 144
+ w 348
j 390 190
+ p 151 1
+ w 113
j 390 180
+ w 113
+ w 113
j 350 190
+ p 152 1
+ w 113
j 470 70
+ p 111 2
+ w 113
j 470 90
+ p 110 1
+ w 113
j 470 80
+ w 113
+ w 113
j 430 190
+ p 153 1
+ w 113
j 430 180
+ w 113
+ w 113
j 190 70
+ p 6 2
+ w 19
j 190 90
+ p 7 1
+ w 19
j 190 80
+ w 19
+ w 19
j 230 100
+ s 9
+ w 19
j 170 60
+ p 5 1
+ w 15
j 140 50
+ p 4 2
+ w 15
j 490 60
+ p 122 1
+ w 141
j 520 50
+ p 139 1
+ w 141
j 190 30
+ p 6 1
+ w 287
j 300 20
+ p 32 a
+ w 287
j 300 10
+ w 287
+ w 287
j 340 20
+ p 35 k
+ w 287
j 190 130
+ p 7 2
+ w 93
j 300 140
+ p 33 k
+ w 93
j 300 150
+ w 93
+ w 93
j 340 140
+ p 34 a
+ w 93
j 470 30
+ p 111 1
+ w 137
j 340 100
+ p 34 k
+ w 137
j 340 60
+ p 35 a
+ w 137
j 340 70
+ w 137
+ w 137
j 470 130
+ p 110 2
+ w 138
j 300 100
+ p 33 a
+ w 138
j 300 60
+ p 32 k
+ w 138
j 300 90
+ w 138
+ w 138
j 170 100
+ p 5 2
+ w 303
j 170 120
+ s 8
+ w 303
j 40 70
+ p 300 +
+ w 11
j 100 50
+ p 4 1
+ w 11
j 40 110
+ p 300 -
+ w 307
j 40 120
+ s 3
+ w 307
@attributes
a 0 s 0:13 0 0 0 hln 100 PAGETITLE=
a 0 s 0:13 0 0 0 hln 100 PAGENO=1
a 0 s 0:13 0 0 0 hln 100 PAGESIZE=A4
a 0 s 0:13 0 0 0 hln 100 PAGECOUNT=1
@graphics
v 28 v 0 180 40
180 120
;
v 109 v 0 480 40
480 120
;
@graphics
