Version 4
SHEET 1 952 680
WIRE 640 -32 304 -32
WIRE 800 -32 640 -32
WIRE 304 -16 304 -32
WIRE 640 -16 640 -32
WIRE 800 0 800 -32
WIRE 304 96 304 64
WIRE 320 96 304 96
WIRE 336 96 320 96
WIRE 624 96 608 96
WIRE 640 96 640 64
WIRE 640 96 624 96
WIRE 800 96 800 80
WIRE 304 112 304 96
WIRE 640 112 640 96
WIRE 32 160 0 160
WIRE 160 160 112 160
WIRE 192 160 160 160
WIRE 240 160 192 160
WIRE 432 160 240 160
WIRE 704 160 512 160
WIRE 784 160 704 160
WIRE 432 176 432 160
WIRE 512 176 512 160
WIRE 0 192 0 160
WIRE 160 192 160 160
WIRE 784 192 784 160
WIRE 336 224 336 96
WIRE 368 224 336 224
WIRE 608 224 608 96
WIRE 608 224 576 224
WIRE 304 240 304 208
WIRE 640 240 640 208
WIRE 0 288 0 272
WIRE 160 288 160 272
WIRE 432 304 432 272
WIRE 512 304 512 272
WIRE 512 304 432 304
WIRE 784 304 784 272
WIRE 304 352 304 320
WIRE 640 352 640 320
WIRE 640 352 304 352
WIRE 304 400 304 352
WIRE 432 400 432 304
WIRE 304 512 304 480
WIRE 432 512 432 480
FLAG 784 304 0
FLAG 160 288 0
FLAG 0 288 0
FLAG 800 96 0
FLAG 320 96 c1
FLAG 624 96 c2
FLAG 192 160 in
FLAG 304 512 0
FLAG 432 512 0
SYMBOL EIT_Semiconductors\\npn 240 112 R0
WINDOW 3 -40 98 Left 2
SYMATTR Value CA3046
SYMATTR InstName Q1
SYMBOL EIT_Semiconductors\\npn 704 112 M0
WINDOW 3 -45 106 Left 2
SYMATTR Value CA3046
SYMATTR InstName Q2
SYMBOL res 288 -32 R0
SYMATTR InstName RC1
SYMATTR Value 10k
SYMBOL res 624 -32 R0
SYMATTR InstName RC2
SYMATTR Value 10k
SYMBOL res 768 176 R0
SYMATTR InstName R1
SYMATTR Value 10
SYMBOL res 144 176 R0
SYMATTR InstName R2
SYMATTR Value 10
SYMBOL res 16 176 R270
WINDOW 0 25 56 VTop 2
WINDOW 3 7 56 VBottom 2
SYMATTR InstName R3
SYMATTR Value 40
SYMBOL source-V 0 176 R0
WINDOW 3 28 56 Left 2
WINDOW 123 0 0 Left 2
WINDOW 39 0 0 Left 2
SYMATTR Value 0
SYMATTR InstName V1
SYMBOL source-V 800 -16 R0
SYMATTR InstName Vplus
SYMATTR Value 9.4
SYMBOL res 288 224 R0
SYMATTR InstName RE1
SYMATTR Value {re}
SYMBOL res 624 224 R0
SYMATTR InstName RE2
SYMATTR Value {re}
SYMBOL source-I 304 480 R180
WINDOW 0 29 73 Left 2
WINDOW 3 29 17 Left 2
SYMATTR InstName I1
SYMATTR Value 1m
SYMBOL EIT_Semiconductors\\pnp_o 368 176 R0
WINDOW 3 35 58 Left 2
SYMATTR InstName Q3
SYMATTR Value PNPx
SYMBOL EIT_Semiconductors\\pnp_o 576 176 M0
WINDOW 3 38 64 Left 2
SYMATTR InstName Q4
SYMATTR Value PNPx
SYMBOL source-V 432 384 R0
SYMATTR InstName V2
SYMATTR Value -10
TEXT 24 24 Left 2 !.dc v1 -1 1 10m
TEXT 32 -24 Left 2 !.param re=10m
TEXT 8 64 Left 2 ;.step Vplus 5 10 1
TEXT 136 -88 Left 2 !.model pnpx pnp (IS=6p)
