Version 4
SHEET 1 880 680
WIRE -464 -288 -528 -288
WIRE -336 -288 -464 -288
WIRE -144 -288 -336 -288
WIRE -96 -288 -144 -288
WIRE -16 -288 -96 -288
WIRE -464 -256 -464 -288
WIRE -336 -240 -336 -288
WIRE -96 -240 -96 -288
WIRE -144 -224 -208 -224
WIRE -608 -208 -688 -208
WIRE -464 -128 -464 -160
WIRE -336 -128 -336 -160
WIRE -336 -128 -464 -128
WIRE -240 -128 -336 -128
WIRE -208 -128 -208 -224
WIRE -208 -128 -240 -128
WIRE -96 -128 -96 -144
WIRE 16 -128 -96 -128
WIRE 32 -128 16 -128
WIRE -688 -112 -688 -208
WIRE -688 -112 -736 -112
WIRE -336 -112 -336 -128
WIRE -96 -112 -96 -128
WIRE 32 -112 32 -128
WIRE -736 -80 -736 -112
WIRE -688 -64 -688 -112
WIRE -608 -64 -688 -64
WIRE -400 -64 -528 -64
WIRE -464 -32 -464 -128
WIRE -208 -32 -208 -128
WIRE -144 -32 -208 -32
WIRE 32 -16 32 -32
WIRE -736 16 -736 0
WIRE -464 64 -464 48
WIRE -464 64 -528 64
WIRE -336 64 -336 -16
WIRE -336 64 -464 64
WIRE -144 64 -336 64
WIRE -96 64 -96 -16
WIRE -96 64 -144 64
WIRE -32 64 -96 64
FLAG -736 16 0
FLAG 32 -16 0
FLAG 16 -128 out
FLAG -688 -112 in
FLAG -240 -128 cg
SYMBOL EIT_Semiconductors\\nmos -144 -112 R0
SYMATTR InstName M1
SYMBOL EIT_Semiconductors\\pmos -144 -144 M180
SYMATTR InstName M2
SYMBOL MDB_sym\\source-Vmarker -144 -288 R0
SYMATTR InstName U1
SYMATTR Value V={VDD}
SYMBOL MDB_sym\\source-V -736 -96 R0
WINDOW 3 -163 317 Left 2
WINDOW 123 0 0 Left 2
WINDOW 39 0 0 Left 2
SYMATTR Value PULSE(0 5 0 10n 10n 20u 40u)
SYMATTR InstName V1
SYMBOL res 16 -128 R0
SYMATTR InstName R1
SYMATTR Value 1k
SYMBOL MDB_sym\\source-Vmarker -144 64 R0
SYMATTR InstName U2
SYMATTR Value V={VSS}
SYMBOL EIT_Semiconductors\\npn -528 -256 R0
SYMATTR InstName Q1
SYMBOL EIT_Semiconductors\\pnp -400 -16 M180
SYMATTR InstName Q2
SYMBOL res -480 -48 R0
SYMATTR InstName R3
SYMATTR Value 47k
SYMBOL res -352 -256 R0
SYMATTR InstName R2
SYMATTR Value 47k
SYMBOL res -624 -48 R270
WINDOW 0 25 56 VTop 2
WINDOW 3 7 56 VBottom 2
SYMATTR InstName R5
SYMATTR Value 1k
SYMBOL res -624 -192 R270
WINDOW 0 25 56 VTop 2
WINDOW 3 7 56 VBottom 2
SYMATTR InstName R4
SYMATTR Value 1k
TEXT -304 -440 Left 2 !.param power=1\n+ VDD = 10V\n+ VSS =0 ;{-VDD}
TEXT -472 88 Left 2 !.tran 1m
