Version 4
SHEET 1 1488 1428
WIRE 800 -64 704 -64
WIRE 512 224 464 224
WIRE 624 224 576 224
WIRE 848 224 816 224
WIRE 864 224 848 224
WIRE 128 304 64 304
WIRE 176 304 128 304
WIRE 256 304 240 304
WIRE 384 304 336 304
WIRE 464 304 464 224
WIRE 464 304 384 304
WIRE 496 304 464 304
WIRE 624 304 624 224
WIRE 624 304 576 304
WIRE 720 304 624 304
WIRE 768 304 720 304
WIRE 816 304 816 224
WIRE 816 304 800 304
WIRE 832 304 816 304
WIRE 880 304 864 304
WIRE 976 304 944 304
WIRE 1040 304 976 304
WIRE 1088 304 1040 304
WIRE 384 336 384 304
WIRE 464 336 464 304
WIRE 624 336 624 304
WIRE 720 336 720 304
WIRE 976 352 976 304
WIRE 1040 352 1040 304
WIRE 1088 352 1088 304
WIRE 128 432 64 432
WIRE 384 432 384 400
WIRE 384 432 128 432
WIRE 464 432 464 400
WIRE 624 432 624 400
WIRE 624 432 528 432
WIRE 720 432 720 400
WIRE 384 448 384 432
WIRE 624 448 624 432
WIRE 976 464 976 432
WIRE 1040 464 1040 416
WIRE 1040 464 976 464
WIRE 1088 464 1088 432
WIRE 1088 464 1040 464
WIRE 1040 496 1040 464
WIRE 384 528 384 512
WIRE 624 528 624 512
WIRE 128 560 64 560
WIRE 528 560 528 432
WIRE 528 560 128 560
WIRE 144 832 80 832
WIRE 208 832 144 832
WIRE 288 832 208 832
WIRE 384 832 352 832
WIRE 496 832 464 832
WIRE 528 832 496 832
WIRE 640 832 608 832
WIRE 752 832 640 832
WIRE 752 848 752 832
WIRE 80 864 80 832
WIRE 144 864 144 832
WIRE 208 864 208 832
WIRE 496 896 496 832
WIRE 640 896 640 832
WIRE 80 976 80 928
WIRE 144 976 144 944
WIRE 144 976 80 976
WIRE 208 976 208 944
WIRE 208 976 144 976
WIRE 496 976 496 960
WIRE 640 976 640 960
WIRE 752 976 752 928
WIRE 144 992 144 976
FLAG 128 304 Tx_Out
FLAG 128 432 Rx_IN1
FLAG 128 560 Rx_IN2
FLAG 1040 496 0
FLAG 624 528 0
FLAG 720 432 0
FLAG 464 432 0
FLAG 384 528 0
FLAG 848 224 TP3
FLAG 640 976 0
FLAG 496 976 0
FLAG 144 992 0
FLAG 752 976 0
FLAG 704 -64 Tx_Out_PIN5
FLAG 704 -16 Rx_IN1_PIN8
FLAG 704 32 Rx_IN2_PIN9
FLAG 800 -64 0
FLAG 144 832 Tx_oute
SYMBOL ind 1072 336 R0
SYMATTR InstName L3
SYMATTR Value 1.5µ
SYMBOL cap 1056 352 M0
WINDOW 0 22 8 Left 2
WINDOW 3 21 64 Left 2
SYMATTR InstName C14
SYMATTR Value 68p
SYMBOL res 992 336 M0
SYMATTR InstName R1
SYMATTR Value 6k8
SYMBOL cap 880 288 M90
WINDOW 0 0 32 VBottom 2
WINDOW 3 32 32 VTop 2
SYMATTR InstName C12/13
SYMATTR Value 24p
SYMBOL cap 736 336 M0
SYMATTR InstName C10/11
SYMATTR Value 127p
SYMBOL cap 640 336 M0
SYMATTR InstName C8
SYMATTR Value 220p
SYMBOL cap 640 448 M0
SYMATTR InstName C9
SYMATTR Value 680p
SYMBOL ind 480 320 R270
WINDOW 0 30 56 VTop 2
WINDOW 3 6 56 VBottom 2
SYMATTR InstName L2
SYMATTR Value 330n
SYMBOL cap 512 208 M90
WINDOW 0 0 32 VBottom 2
WINDOW 3 32 32 VTop 2
SYMATTR InstName C6
SYMATTR Value 10p
SYMBOL cap 480 336 M0
SYMATTR InstName C7
SYMATTR Value 680p
SYMBOL cap 400 336 M0
SYMATTR InstName C4
SYMATTR Value 1.2n
SYMBOL cap 400 448 M0
SYMATTR InstName C5
SYMATTR Value 1.2n
SYMBOL ind 240 320 R270
WINDOW 0 30 56 VTop 2
WINDOW 3 6 56 VBottom 2
SYMATTR InstName L1
SYMATTR Value 150n
SYMBOL cap 176 288 M90
WINDOW 0 0 32 VBottom 2
WINDOW 3 32 32 VTop 2
SYMATTR InstName C2/3
SYMATTR Value 3n
SYMBOL cap 64 864 R0
WINDOW 0 49 16 VRight 2
WINDOW 3 25 93 Left 2
SYMATTR InstName C_ZL
SYMATTR Value 1f
SYMBOL ind 128 848 R0
WINDOW 0 46 30 VRight 2
WINDOW 3 26 107 Left 2
SYMATTR InstName L_ZL
SYMATTR Value 1p
SYMBOL cap 352 816 R90
WINDOW 0 0 32 VBottom 2
WINDOW 3 32 32 VTop 2
SYMATTR InstName C2/3e
SYMATTR Value 3n
SYMBOL ind 624 848 M270
WINDOW 0 30 56 VTop 2
WINDOW 3 6 56 VBottom 2
SYMATTR InstName L2e
SYMATTR Value 330n
SYMBOL ind 480 848 M270
WINDOW 0 30 56 VTop 2
WINDOW 3 6 56 VBottom 2
SYMATTR InstName L1e
SYMATTR Value 150n
SYMBOL cap 480 896 R0
SYMATTR InstName C4/5/7
SYMATTR Value 1.2n
SYMBOL cap 624 896 R0
WINDOW 0 -30 118 Left 2
SYMATTR InstName C8/9/10/11
SYMATTR Value 256p
SYMBOL MDB_sym\\source-V 752 832 R0
WINDOW 123 28 107 Left 2
WINDOW 39 28 133 Left 2
SYMATTR InstName V1
SYMATTR Value 0
SYMATTR Value2 AC 1
SYMATTR SpiceLine Rser=50
SYMBOL res 192 848 R0
WINDOW 0 44 30 VRight 2
WINDOW 3 27 108 Left 2
SYMATTR InstName R_ZL
SYMATTR Value 4
SYMBOL MDB_sym\\isoR 784 304 R270
WINDOW 0 4 0 Invisible 2
WINDOW 3 -18 -15 VRight 2
SYMATTR InstName R3
SYMATTR Value 1m
SYMBOL MDB_sym\\isoR 848 304 R270
WINDOW 0 4 0 Invisible 2
WINDOW 3 -18 -15 VRight 2
SYMATTR InstName R4
SYMATTR Value 1m
TEXT -88 -56 Left 2 ;http://www.ti.com/lit/ds/symlink/trf7970a.pdf \npage 76\npage 77 - Impedance Matching TX_Out (Pin 5) to 50ohm ?
TEXT 272 688 Left 2 ;Ersatzschaltung Impedanz Anpassung - p.78
TEXT -106 690 Left 2 !.ac oct 100 1k 100meg
TEXT 24 1056 Left 2 ;(4.00+j0.00)ohm@13.6MHz\nHersteller-spec für Tx_Out pin
TEXT 464 1008 Left 2 ;combo
TEXT 608 1040 Left 2 ;combo
TEXT -96 192 Left 2 ;TRF7970A\nRF-Backend
TEXT 0 296 Left 2 ;PIN5
TEXT 0 424 Left 2 ;PIN8
TEXT 0 544 Left 2 ;PIN9
TEXT 264 1136 Left 2 ;ZL+X_C2/3+X_L1+X_C457
LINE Normal 752 160 64 160 3
LINE Normal 752 608 752 160 3
LINE Normal 256 608 752 608 3
LINE Normal 256 368 256 608 3
LINE Normal 64 368 256 368 3
LINE Normal 64 624 64 96
LINE Normal 64 624 -96 624
LINE Normal 336 960 480 848
LINE Normal 336 960 368 960
LINE Normal 352 928 336 960
LINE Normal 544 1152 544 992 3
RECTANGLE Normal 512 32 -112 -80 2
RECTANGLE Normal 760 712 248 664 2
RECTANGLE Normal 272 1024 32 784 2
RECTANGLE Normal 880 1008 704 800 2
