Version 4
SHEET 1 1628 900
WIRE -448 -368 -464 -368
WIRE -384 -368 -448 -368
WIRE -448 -352 -448 -368
WIRE -448 -192 -464 -192
WIRE -416 -192 -448 -192
WIRE -144 -192 -176 -192
WIRE -448 -176 -448 -192
WIRE -64 -112 -96 -112
WIRE 0 -112 -64 -112
WIRE 48 -112 0 -112
WIRE 176 -112 96 -112
WIRE 192 -112 176 -112
WIRE 288 -112 272 -112
WIRE 400 -112 368 -112
WIRE 512 -112 400 -112
WIRE 608 -112 512 -112
WIRE 400 -96 400 -112
WIRE 512 -96 512 -112
WIRE 16 -48 -48 -48
WIRE 64 -48 64 -96
WIRE 64 -48 16 -48
WIRE 176 -48 176 -112
WIRE 608 -48 608 -112
WIRE -48 -32 -48 -48
WIRE 64 -32 64 -48
WIRE 512 -32 512 -48
WIRE 400 0 400 -16
WIRE 400 0 384 0
WIRE 400 16 400 0
WIRE -128 32 -128 16
WIRE -560 80 -576 80
WIRE -464 80 -480 80
WIRE -448 80 -464 80
WIRE -352 80 -368 80
WIRE 176 96 176 16
WIRE 400 96 400 80
WIRE 512 96 512 48
WIRE 608 96 608 32
WIRE -288 128 -288 80
WIRE -240 128 -288 128
WIRE -464 144 -464 80
WIRE -448 144 -464 144
WIRE -128 144 -128 112
WIRE -128 144 -176 144
WIRE -80 144 -128 144
WIRE -48 144 -48 16
WIRE -48 144 -80 144
WIRE -352 160 -352 80
WIRE -352 160 -384 160
WIRE -320 160 -352 160
WIRE -240 160 -320 160
WIRE -528 176 -560 176
WIRE -480 176 -528 176
WIRE -448 176 -480 176
WIRE 448 208 448 192
WIRE -368 224 -384 224
WIRE -336 224 -368 224
WIRE -304 224 -336 224
WIRE 176 224 144 224
WIRE 208 224 176 224
WIRE -368 240 -368 224
WIRE 176 256 144 256
WIRE 208 256 176 256
WIRE 176 288 144 288
WIRE 208 288 176 288
WIRE -368 336 -368 320
WIRE 448 336 448 320
WIRE -320 576 -400 576
WIRE -32 576 -112 576
WIRE 528 640 512 640
WIRE -32 688 -32 576
WIRE 528 688 528 640
WIRE -448 736 -480 736
WIRE -400 736 -400 576
WIRE -400 736 -448 736
WIRE -384 736 -400 736
WIRE 64 736 16 736
WIRE 816 736 784 736
WIRE 864 736 816 736
WIRE -336 880 -336 784
WIRE 864 880 864 736
WIRE 864 880 -336 880
FLAG 176 96 0
FLAG 0 -112 Ve
FLAG 400 96 0
FLAG 64 96 0
FLAG 16 -48 fet
FLAG 176 -112 s
FLAG 512 -112 Va
FLAG 608 96 0
FLAG 384 0 ca
FLAG 512 96 0
FLAG -208 176 0
FLAG -144 -192 Vcc
FLAG -128 16 Ve
FLAG -288 80 Vsaw
IOPIN -288 80 In
FLAG -576 80 Va
IOPIN -576 80 In
FLAG -320 160 Vr
FLAG -448 -96 0
FLAG -416 -192 Vsaw
IOPIN -416 -192 Out
FLAG -80 144 pwm
FLAG -368 336 0
FLAG -336 224 Vrcalc
FLAG -528 176 Vsoll
FLAG -448 -272 0
FLAG 176 224 pk
FLAG 176 256 pl
FLAG 176 288 pw
FLAG 448 336 0
FLAG 448 192 0
FLAG 816 736 Vab
FLAG -448 736 Vsoll
DATAFLAG -64 -112 "round(1e3*$)*1e-3"
DATAFLAG -480 176 "round(1e3*$)*1e-3"
DATAFLAG 208 224 "round(1e3*$)*1e-3"
DATAFLAG 208 256 "round(1e3*$)*1e-3"
DATAFLAG 208 288 "round(1e3*$)*1e-3"
SYMBOL source-Vmarker -96 -112 R0
SYMATTR Value V={Ve}
SYMATTR InstName U1
SYMBOL ind 176 -96 R270
WINDOW 0 30 56 VTop 2
WINDOW 3 6 56 VBottom 2
SYMATTR InstName L1
SYMATTR Value {L1}
SYMATTR SpiceLine Rser=1n
SYMBOL cap 384 16 R0
SYMATTR InstName Ca
SYMATTR Value {CA}
SYMBOL source-V 64 0 R0
WINDOW 3 -41 135 Left 2
WINDOW 123 0 0 Left 2
WINDOW 39 0 0 Left 2
WINDOW 0 -50 27 Left 2
SYMATTR Value PULSE(-1 1 0 1n 1n {pw*T} {T})
SYMATTR InstName V1
SYMBOL source-I 608 32 M180
WINDOW 0 29 73 Left 2
WINDOW 3 29 17 Left 2
WINDOW 123 0 0 Left 2
WINDOW 39 29 -9 Left 2
SYMATTR InstName Ib
SYMATTR Value {Ib}
SYMATTR SpiceLine load
SYMBOL res 384 -112 R0
SYMATTR InstName Rs
SYMATTR Value {Rs}
SYMBOL MDB_sym\\jumper 576 -64 R90
SYMATTR InstName X1
SYMBOL MDB_sym\\swMDBsingle 80 -96 M270
WINDOW 0 36 20 VRight 2
SYMATTR InstName U2
SYMBOL diode 192 16 R180
WINDOW 0 24 64 Left 2
WINDOW 3 24 0 Left 2
SYMATTR InstName D1
SYMATTR Value Dx
SYMBOL res 272 -96 R270
WINDOW 0 25 56 VTop 2
WINDOW 3 7 56 VBottom 2
SYMATTR InstName Rp
SYMATTR Value {Rp}
SYMBOL res 496 -48 R0
SYMATTR InstName RL
SYMATTR Value {RL}
SYMBOL MDB_sym\\jumperSetable 64 0 M90
WINDOW 0 -7 -32 Invisible 2
WINDOW 3 -7 16 Invisible 2
SYMATTR InstName U3
SYMATTR Value cl={1-reg}
SYMBOL MDB_sym\\jumperSetable -48 0 M90
WINDOW 0 -7 -32 Invisible 2
WINDOW 3 -7 16 Invisible 2
SYMATTR InstName U5
SYMATTR Value cl={reg}
SYMBOL EIT_Semiconductors\\comp_oc -208 144 R0
WINDOW 0 17 25 Left 2
WINDOW 3 9 26 Invisible 2
SYMATTR InstName U4
SYMBOL res -144 16 R0
SYMATTR InstName R1
SYMATTR Value 4k7
SYMBOL source-Vmarker -176 -192 R0
SYMATTR Value V={Vcc}
SYMATTR InstName U6
SYMBOL EIT_Semiconductors\\op_3 -416 160 R0
WINDOW 0 -5 34 Left 2
WINDOW 123 -17 69 Invisible 2
WINDOW 3 -16 43 Invisible 2
SYMATTR InstName U7
SYMATTR Value Vp={Vcc} Vm={-Vcc} Ilim=20m
SYMBOL res -464 96 R270
WINDOW 0 25 56 VTop 2
WINDOW 3 7 56 VBottom 2
SYMATTR InstName R2
SYMATTR Value {Rf}
SYMBOL res -576 96 R270
WINDOW 0 25 56 VTop 2
WINDOW 3 7 56 VBottom 2
SYMATTR InstName R3
SYMATTR Value {R1}
SYMBOL MDB_sym\\source-Vmarker -560 176 R0
SYMATTR Value V={Vsoll}
SYMATTR InstName U8
SYMBOL source-V -448 -192 R0
WINDOW 3 -172 127 Left 2
WINDOW 123 0 0 Left 2
WINDOW 39 0 0 Left 2
WINDOW 0 -50 27 Left 2
SYMATTR Value PULSE(0 {SawMax} 0 10u 5u 0 15u)
SYMATTR InstName V2
SYMBOL bv -368 224 R0
SYMATTR InstName B1
SYMATTR Value V=(V(Vsoll)-V(Va))*Rf/R1+V(Vsoll)
SYMBOL source-V -448 -368 R0
WINDOW 3 -172 127 Left 2
WINDOW 123 0 0 Left 2
WINDOW 39 0 0 Left 2
WINDOW 0 -50 27 Left 2
SYMATTR Value SINE(0 1 {10/(2*pi*sqrt(L1*Ca))})
SYMATTR InstName V3
SYMBOL MDB_sym\\isoR0 -480 -192 R90
WINDOW 0 9 10 Invisible 2
SYMATTR InstName U9
SYMBOL MDB_sym\\isoR0 -480 -368 R90
WINDOW 0 9 10 Invisible 2
SYMATTR InstName U10
SYMBOL MDB_sym\\isoR0 -400 224 R90
WINDOW 0 9 10 Invisible 2
SYMATTR InstName U11
SYMBOL MDB_sym\\source-Vmarker 144 224 R0
SYMATTR Value V={pk}
SYMATTR InstName U12
SYMBOL MDB_sym\\source-Vmarker 144 256 R0
SYMATTR Value V={pl}
SYMATTR InstName U13
SYMBOL MDB_sym\\source-Vmarker 144 288 R0
SYMATTR Value V={pw}
SYMATTR InstName U14
SYMBOL source-I 448 320 M180
WINDOW 0 35 46 Left 2
WINDOW 3 29 17 Left 2
WINDOW 123 0 0 Left 2
WINDOW 39 29 -9 Left 2
SYMATTR InstName Iamin
SYMATTR Value {Iamin}
SYMBOL MDB_sym\\isoR 448 224 R0
SYMATTR InstName R4
SYMATTR Value 1
SYMBOL EIT_PLL\\Subtraction -336 736 R0
SYMATTR InstName U15
SYMBOL Pwm\\Gain -208 736 R0
WINDOW 39 -1 81 Center 2
SYMATTR SpiceLine K={Rf/R1}
SYMATTR InstName U16
SYMBOL Pwm\\Gain 144 736 R0
WINDOW 39 19 83 Center 2
SYMATTR SpiceLine K={1/SawMax}
SYMATTR InstName U17
SYMBOL Pwm\\Gain 352 736 R0
WINDOW 39 12 83 Center 2
SYMATTR SpiceLine K={Ve+Vd0}
SYMATTR InstName U18
SYMBOL EIT_PLL\\Subtraction 528 736 M180
SYMATTR InstName U19
SYMBOL MDB_sym\\source-Vmarker 512 640 R0
SYMATTR Value V={Vd0}
SYMATTR InstName U20
SYMBOL Pwm\\Gain 656 736 R0
WINDOW 39 12 83 Center 2
SYMATTR SpiceLine K={RL/(Rp+RL)}
SYMATTR InstName U21
SYMBOL EIT_PLL\\Subtraction -32 736 M180
SYMATTR InstName U22
SYMBOL Pwm\\Gain -240 576 R0
WINDOW 39 -5 -90 Center 2
SYMATTR SpiceLine K=0
SYMATTR InstName U23
TEXT 264 -504 Left 2 ;_Buckconverter\n_........................
TEXT -192 -792 Left 2 !.param Buck = 1\n+ RL = 20meg\n+ Rp = 0.1\n+ Rs = 0.1\n+ L1 = 33u\n+ Ca = 22u\n+ Vd0 = .4V\n+ Ve = 5V\n+ Vcc = 10V\n+ Vsoll = 3V\n+ T = 15us \n+ pk = {(Va+Vd0)/(Ve+Vd0)}\n+ pl = {sqrt(2*L1/T*(Va+Vd0)/((Ve-Va)*(Ve+Vd0))*Ib)}\n+ pw = {if(Ib+.5-Iamin*.999, pk, pl)}\n+ Va = {Vsoll}\n+ Ib = {Iamin*2}\n+ Iamin = 286mA\n+ N = 400\n+ SawMax = 3V
TEXT 552 -160 Left 2 ;.ic V(ca)=0.01
TEXT -168 -280 Left 2 !.tran 0 {N*T} {(N-2)*T}
TEXT 784 -640 Left 2 !; ---------------------------------------------------\n; Rippelspannung berechnen\n; ---------------------------------------------------\n.MEAS TRAN area_ICa INTEG I(CA)\n+ TRIG I(CA)=0 RISE=last\n+ TARG I(CA)=0 FALL=last\n \n.MEAS TRAN vrip PARAM area_ICa/CA\n \n; ---------------------------------------------------\n; Rippelspannung direkt messen\n; ---------------------------------------------------\n.MEAS TRAN vpp pp V(A) \n+ TRIG time=0\n+ TARG time=300u\n \n; ---------------------------------------------------\n; ESR\n; ---------------------------------------------------\n.MEAS TRAN ILmax MAX I(L1) TD=10u\n.MEAS TRAN ILmin MIN I(L1) TD=10u\n.MEAS TRAN p1 FIND V(a,ca) WHEN I(L1)=ILmin fall=last\n.MEAS TRAN p2 FIND V(a,ca) WHEN I(L1)=ILmax rise=last\n.MEAS TRAN dVa PARAM abs(p2-p1)\n.MEAS TRAN dIL PARAM abs(ILmax-ILmin)\n.MEAS TRAN Rser PARAM dVa/dIL
TEXT 256 -648 Left 2 !.param reg = 0\n+ Kp = 1\n+ R1 = 10k\n+ Rf = {R1*Kp}
TEXT -32 -256 Left 2 ;.option noopiter
TEXT 200 -280 Left 2 !.op
TEXT 784 -824 Left 2 !; ---------------------------------------------------\n; Model defines\n; ---------------------------------------------------\n.model swL SW(Ron=1m Roff=100Meg Vt=0 Vh=-.5 )\n.model swT SW(Ron=1m Roff=100meg Vt=0 Vh=-.5 )\n.model Dx D (Vfwd = {VD0} Ron = .01 Roff 10meg)
TEXT 176 -200 Left 2 !.ic I(L1) = 0
TEXT 272 -344 Left 2 ;.step param Ic list 3 2.5 2 1.5 1
TEXT 800 72 Left 2 ;; ---------------------------------------------------\n; Tastverhältniss\n; ---------------------------------------------------\n.MEAS TRAN t0 FIND time*1e6 WHEN I(L1)=I(I1) cross=1 TD=1u\n.MEAS TRAN t1 FIND time*1e6 WHEN I(L1)=I(I1) cross=2 TD=1u\n.MEAS TRAN t2 FIND time*1e6 WHEN I(L1)=I(I1) cross=3 TD=1u\n.MEAS TRAN trise FIND time WHEN I(L1)=I(I1) rise=1 TD=1u\n.MEAS TRAN tfall FIND time WHEN I(L1)=I(I1) fall=1 TD=1u\n \n.MEAS TRAN T PARAM round(t2-t0)\n.MEAS TRAN ton PARAM round(t1-t0)
