Version 4
SHEET 1 1792 1604
WIRE -208 -144 -240 -144
WIRE -176 -144 -208 -144
WIRE -240 -128 -240 -144
WIRE -320 -96 -352 -96
WIRE -288 -96 -320 -96
WIRE -352 -80 -352 -96
WIRE -240 -32 -240 -48
WIRE -352 16 -352 0
WIRE 608 96 592 96
WIRE 624 96 608 96
WIRE 624 112 624 96
WIRE -208 160 -224 160
WIRE -192 160 -208 160
WIRE -48 160 -80 160
WIRE -16 160 -48 160
WIRE 144 160 64 160
WIRE 192 160 144 160
WIRE 304 160 272 160
WIRE 368 160 304 160
WIRE 544 160 432 160
WIRE 608 160 544 160
WIRE 720 160 688 160
WIRE 304 176 304 160
WIRE 544 192 544 160
WIRE 720 192 720 160
WIRE 144 208 144 160
WIRE 368 208 368 160
WIRE 384 208 368 208
WIRE 448 208 432 208
WIRE 0 224 0 208
WIRE 448 224 448 208
WIRE 304 272 304 256
WIRE 16 288 0 288
WIRE 48 288 48 208
WIRE 48 288 16 288
WIRE 304 288 304 272
WIRE 144 304 144 272
WIRE 544 304 544 272
WIRE 720 304 720 272
WIRE 448 320 448 304
WIRE 304 368 304 352
FLAG -208 160 Ve
FLAG 0 224 0
FLAG 144 304 0
FLAG -48 160 Ve
FLAG 720 304 0
FLAG 304 368 0
FLAG 672 112 0
FLAG 608 96 load
FLAG 16 288 fet
FLAG -240 -32 0
FLAG -352 16 0
FLAG -320 -96 fet
FLAG -208 -144 load
FLAG 544 304 0
FLAG 720 160 out
FLAG 144 160 s
FLAG 304 160 A
FLAG 448 320 0
FLAG 304 272 ca
SYMBOL source-Vmarker -224 160 R0
SYMATTR Value V={Ve}
SYMATTR InstName U1
SYMBOL diode 160 272 R180
WINDOW 0 24 72 Left 2
WINDOW 3 28 -5 Left 2
SYMATTR InstName D1
SYMATTR Value MUR460
SYMBOL sw -32 160 R270
WINDOW 0 52 17 VRight 2
WINDOW 3 51 78 VRight 2
SYMATTR InstName S1
SYMATTR Value swT
SYMBOL ind 176 176 R270
WINDOW 0 30 56 VTop 2
WINDOW 3 6 56 VBottom 2
SYMATTR InstName L1
SYMATTR Value {L}
SYMATTR SpiceLine Rser=1n
SYMBOL cap 288 288 R0
SYMATTR InstName Ca
SYMATTR Value {CA}
SYMBOL sw 704 160 R90
WINDOW 0 51 59 VRight 2
WINDOW 3 72 41 VRight 2
SYMATTR InstName S2
SYMATTR Value swL
SYMBOL res 704 176 R0
SYMATTR InstName R1
SYMATTR Value {RL}
SYMBOL source-V -240 -144 R0
WINDOW 3 -14 145 Left 2
WINDOW 123 0 0 Left 2
WINDOW 39 0 0 Left 2
SYMATTR Value PULSE(-1.1 1.1 {T_load})
SYMATTR InstName V1
SYMBOL source-V -352 -96 R0
WINDOW 3 -14 145 Left 2
WINDOW 123 0 0 Left 2
WINDOW 39 0 0 Left 2
SYMATTR Value PULSE(-1 1 0 100n 100n {PW/fs} {1/fs})
SYMATTR InstName V2
SYMBOL res 528 176 R0
SYMATTR InstName R2
SYMATTR Value 10k
SYMBOL source-I 448 304 R180
WINDOW 0 29 73 Left 2
WINDOW 3 29 17 Left 2
WINDOW 123 0 0 Left 2
WINDOW 39 29 -9 Left 2
SYMATTR InstName I1
SYMATTR Value {Ia}
SYMATTR SpiceLine load
SYMBOL res 288 160 R0
WINDOW 3 -123 55 Left 2
SYMATTR InstName R3
SYMATTR Value {0.37+Rvia}
SYMBOL MDB_sym\\jumper 416 144 R0
SYMATTR InstName X1
TEXT 16 -280 Left 2 ;.model swL SW(Ron=1m Roff=100Meg Vt=0 Vh=-.5 )\n.model swT SW(Ron=1m Roff=100meg Vt=0 Vh=-.5 )\n;.model Dx D ( Is={I0/exp(0.7/26m)} Rs = 0.1 Cjo = 0p)\n;.model nmosx nmos (Kp={2*K} VT0=2.5)
TEXT 96 -72 Left 2 !.param fs = 10k\n.param T_load = 0\n.param Ve = 10V\n.param PW = 0.5\n.param Ia = .2
TEXT 328 -80 Left 2 !.param CA = 100u\n.param L = 100u\n.param RL = 22
TEXT -328 296 Left 2 !.tran 0 50m {50m-400u} 100n
TEXT 80 -128 Left 2 ;.step param L 10u 100u 10u
TEXT 848 -192 Left 2 ;Spulen-Energie \nEL = 0.5*L1*IL^2\n \nVerlauf des Spulenstromes\n-------------------------------------------\nIL_on = (Ve-Vca)/L1*t+IL0\nIL_off = -(Vca+VD0)/L1*t+IL0-2\n \nWenn eine stationäre Vca gefordert ist,\nmuss mittlerer Kondensatorstrom _IL=0A\ngelten da sich die Vca sonst ändern würde\n \nTastverhältniss p\n---------------------------\np = t1/T  \nTastverhältniss p ergibt sich aus der \non-zeit t1 und der Periodendauer T\n \nd_IL_on = (Ve-Va)/L1*t   für 0<t<t1\nd_IL_off = -(Va+VD0)/L1*(T-t1)    für t1<t<T\n \nWegen Vca=const. muss gelten:\n|d_IL_on| = |d_IL_off|\n \np = t1/T = (Va+VD0)/(Ve+VD0)\nVa = t1/T*(Ve+VD0)
TEXT -8 552 Left 2 !; ---------------------------------------------------\n; Tastverhältniss\n; ---------------------------------------------------\n.MEAS TRAN t0 FIND time*1e6 WHEN I(L1)=I(I1) cross=1 TD=1u\n.MEAS TRAN t1 FIND time*1e6 WHEN I(L1)=I(I1) cross=2 TD=1u\n.MEAS TRAN t2 FIND time*1e6 WHEN I(L1)=I(I1) cross=3 TD=1u\n.MEAS TRAN trise FIND time WHEN I(L1)=I(I1) rise=1 TD=1u\n.MEAS TRAN tfall FIND time WHEN I(L1)=I(I1) fall=1 TD=1u\n \n.MEAS TRAN T PARAM round(t2-t0)\n.MEAS TRAN ton PARAM round(t1-t0)\n \n; ---------------------------------------------------\n; Rippelspannung berechnen\n; ---------------------------------------------------\n.MEAS TRAN area_ICa INTEG I(CA)\n+ TRIG I(CA)=0 RISE=1\n+ TARG I(CA)=0 FALL=1\n \n.MEAS TRAN vrip PARAM area_ICa/CA\n \n; ---------------------------------------------------\n; Rippelspannung direkt messen\n; ---------------------------------------------------\n.MEAS TRAN vpp pp V(A) \n+ TRIG time=0\n+ TARG time=300u\n \n; ---------------------------------------------------\n; ESR\n; ---------------------------------------------------\n.MEAS TRAN ILmax MAX I(L1) TD=10u\n.MEAS TRAN ILmin MIN I(L1) TD=10u\n.MEAS TRAN p1 FIND V(a,ca) WHEN I(L1)=ILmin fall=last\n.MEAS TRAN p2 FIND V(a,ca) WHEN I(L1)=ILmax rise=last\n.MEAS TRAN dVa PARAM abs(p2-p1)\n.MEAS TRAN dIL PARAM abs(ILmax-ILmin)\n.MEAS TRAN Rser PARAM dVa/dIL
TEXT 8 -352 Left 2 !.model swL SW(Ron=1m Roff=100Meg Vt=0 Vh=-.5 )\n.model swT SW(Ron=1m Roff=100meg Vt=0 Vh=-.5 )
TEXT 72 408 Left 2 ;.step param Ia 1.3 3 0.1
TEXT -184 400 Left 2 !.op
TEXT 696 640 Left 2 ;.MEAS TRAN dtVa TIME\n+ TRIG MIN I(L1) cross=1\n+ TARG MAX I(L1) cross=1
TEXT 448 376 Left 2 !.param Rvia = 0
TEXT 448 416 Left 2 !.step param Rvia 0 500m
