Version 4
SHEET 1 1236 1376
WIRE -400 -416 -512 -416
WIRE -304 -416 -400 -416
WIRE -512 -400 -512 -416
WIRE -304 -384 -304 -416
WIRE -400 -368 -448 -368
WIRE -368 -368 -400 -368
WIRE -368 -320 -384 -320
WIRE -512 -304 -512 -320
WIRE -384 -288 -384 -320
WIRE -304 -272 -304 -304
WIRE -304 -272 -336 -272
WIRE -256 -272 -304 -272
WIRE -224 -272 -256 -272
WIRE -96 -272 -144 -272
WIRE -32 -272 -96 -272
WIRE 0 -272 -32 -272
WIRE -96 -256 -96 -272
WIRE 0 -256 0 -272
WIRE -448 -240 -448 -368
WIRE -304 -240 -304 -272
WIRE -304 -160 -304 -176
WIRE -96 -160 -96 -192
WIRE 0 -160 0 -176
WIRE -448 -144 -448 -160
WIRE 80 -16 32 -16
WIRE 32 0 32 -16
WIRE 32 16 32 0
WIRE 32 96 32 80
WIRE -80 288 -160 288
WIRE -48 288 -80 288
WIRE -560 304 -560 272
WIRE -544 304 -560 304
WIRE -512 304 -544 304
WIRE -384 304 -432 304
WIRE -320 304 -384 304
WIRE -288 304 -320 304
WIRE -384 320 -384 304
WIRE -288 320 -288 304
WIRE -160 320 -160 288
WIRE -560 336 -560 304
WIRE 32 336 32 320
WIRE -560 416 -560 400
WIRE -384 416 -384 384
WIRE -288 416 -288 400
WIRE -160 416 -160 400
FLAG -96 -160 0
FLAG 0 -160 0
FLAG -304 -160 0
FLAG -512 -304 0
FLAG -448 -144 0
FLAG -384 -288 0
FLAG -256 -272 s
FLAG -32 -272 a
FLAG -400 -416 e
FLAG -400 -368 crtl
FLAG 32 96 0
FLAG -384 416 0
FLAG -288 416 0
FLAG -560 416 0
FLAG -544 304 sc
FLAG -320 304 outc
FLAG -160 416 0
FLAG -80 288 Vd2_open
FLAG 32 256 0
FLAG 32 416 0
FLAG 288 -64 0
FLAG 288 -144 0
SYMBOL ind -240 -256 R270
WINDOW 0 30 56 VTop 2
WINDOW 3 6 56 VBottom 2
SYMATTR InstName L1
SYMATTR Value {L}
SYMBOL cap -112 -256 R0
WINDOW 3 -63 67 Left 2
SYMATTR Value {Ca} IC=5
SYMATTR InstName C1
SYMBOL diode -288 -176 R180
WINDOW 0 -44 35 Left 2
WINDOW 3 -56 4 Left 2
SYMATTR InstName D1
SYMATTR Value my_d
SYMBOL crtl-V-S -304 -400 R0
SYMATTR InstName S1
SYMATTR Value my_sw
SYMBOL source-V -512 -416 R0
WINDOW 123 0 0 Left 2
WINDOW 39 0 0 Left 2
SYMATTR InstName V1
SYMATTR Value {Ve}
SYMBOL source-V -448 -256 R0
WINDOW 3 -114 152 Left 2
WINDOW 123 0 0 Left 2
WINDOW 39 0 0 Left 2
SYMATTR Value PULSE(0 2.5 1u 1p 1p {p*T} {T})
SYMATTR InstName V2
SYMBOL source-V 32 -16 R0
WINDOW 123 0 0 Left 2
WINDOW 39 0 0 Left 2
WINDOW 3 -87 148 Left 2
SYMATTR Value SINE(0 1 1meg)
SYMATTR InstName V3
SYMBOL ind -528 320 R270
WINDOW 0 30 56 VTop 2
WINDOW 3 6 56 VBottom 2
SYMATTR InstName L2
SYMATTR Value 50µ
SYMBOL cap -400 320 R0
WINDOW 3 -63 67 Left 2
SYMATTR Value {ca}
SYMATTR InstName C2
SYMBOL res -304 304 R0
SYMATTR InstName R2
SYMATTR Value 10k
SYMBOL diode -544 400 R180
WINDOW 0 -44 35 Left 2
WINDOW 3 -56 4 Left 2
SYMATTR InstName D2
SYMATTR Value my_d
SYMBOL bv -160 304 R0
WINDOW 3 -11 173 Left 2
SYMATTR Value V={n*VT*ln( I(L2)/Isd2 )}
SYMATTR InstName B1
SYMBOL diode 48 320 R180
WINDOW 0 -44 35 Left 2
WINDOW 3 -56 4 Left 2
SYMATTR InstName D3
SYMATTR Value my_d2
SYMBOL MDB_sym\\source-I 32 336 R0
WINDOW 123 0 0 Left 2
WINDOW 39 0 0 Left 2
SYMATTR InstName I1
SYMATTR Value 0
SYMBOL MDB_sym\\source-I 0 -176 M180
WINDOW 123 0 0 Left 2
WINDOW 39 0 0 Left 2
SYMATTR InstName I2
SYMATTR Value {Ia}
SYMBOL res 272 -160 R0
SYMATTR InstName R3
SYMATTR Value {RL}
TEXT -520 -608 Left 2 !.model my_sw SW(Ron=1m Roff=1T Vt=1.25 Vh=-0.5)\n.model my_D D(Ron=1m Roff=1T Vfwd={Vd0})\n.model my_D2 D (Is={Isd2} N={n})
TEXT -520 -496 Left 2 ;P=(VA+VD0)/(VE+VD0)=5,4/15,4=0.35064
TEXT 184 -688 Left 2 !.param Vd0=.4V\n.param Va=5V\n.param Ve=15V\n;.param p=0.35064935 \n.param T=20u \n.param Ca=100u\n.param L = 50uH \n.param L1=L\n.param RL=7.13\n.param Ia=0.5A\n \n.param Id0=10A\n.param VT=26mV\n.param n=1.2\n.param Isd2=Id0/exp( Vd0/( n*VT ) )
TEXT -64 168 Left 2 !.tran 0 500u {500u-4*T} 0.1u
TEXT -584 472 Left 2 ;.Ic I(L3) = 0
TEXT -416 472 Left 2 ;.Ic V(outc) = 5
TEXT -584 504 Left 2 ;.step param IL3 list 0 500m -500m
TEXT -504 240 Left 2 ;.step param IL2 list 0 5
TEXT 176 -272 Left 2 !; Lückbetrieb\n.param p = sqrt( 2*L1/T *(Va+Vd0) / ( (Ve-Va)*(Ve+Vd0) )* Ia )
