Version 4
SHEET 1 1836 900
WIRE -672 -704 -720 -704
WIRE -576 -704 -592 -704
WIRE -416 -704 -576 -704
WIRE -304 -704 -352 -704
WIRE -720 -672 -720 -704
WIRE -576 -624 -576 -704
WIRE -560 -624 -576 -624
WIRE -464 -624 -480 -624
WIRE -400 -624 -464 -624
WIRE -304 -608 -304 -704
WIRE -304 -608 -336 -608
WIRE -272 -608 -304 -608
WIRE -160 -608 -192 -608
WIRE -96 -608 -160 -608
WIRE -400 -592 -416 -592
WIRE 0 -592 -32 -592
WIRE 32 -592 0 -592
WIRE 128 -592 96 -592
WIRE -720 -576 -720 -592
WIRE -464 -576 -464 -624
WIRE -96 -576 -112 -576
WIRE -160 -560 -160 -608
WIRE -416 -544 -416 -592
WIRE -304 -544 -304 -608
WIRE -304 -544 -416 -544
WIRE -112 -528 -112 -576
WIRE 0 -528 0 -592
WIRE 0 -528 -112 -528
WIRE -464 -496 -464 -512
WIRE -160 -480 -160 -496
WIRE 16 -400 -720 -400
WIRE 128 -400 128 -592
WIRE 128 -400 16 -400
WIRE -432 -240 -448 -240
WIRE -304 -240 -352 -240
WIRE -720 -176 -720 -400
WIRE -704 -176 -720 -176
WIRE -560 -176 -624 -176
WIRE -464 -176 -560 -176
WIRE -448 -176 -448 -240
WIRE -448 -176 -464 -176
WIRE -384 -176 -448 -176
WIRE -560 -160 -560 -176
WIRE -304 -160 -304 -240
WIRE -304 -160 -320 -160
WIRE -240 -160 -304 -160
WIRE -192 -160 -240 -160
WIRE -400 -144 -416 -144
WIRE -384 -144 -400 -144
WIRE -400 -128 -400 -144
WIRE -368 -96 -400 -96
WIRE -560 -64 -560 -80
WIRE -400 -48 -400 -64
WIRE -208 -32 -240 -32
WIRE -192 -32 -208 -32
WIRE -576 112 -592 112
WIRE -480 112 -496 112
WIRE -400 112 -416 112
WIRE -288 112 -320 112
WIRE -576 176 -592 176
WIRE -480 176 -480 112
WIRE -480 176 -496 176
WIRE -448 176 -480 176
WIRE -416 176 -416 112
WIRE -416 176 -448 176
WIRE -368 176 -416 176
WIRE -288 192 -288 112
WIRE -288 192 -304 192
WIRE -256 192 -288 192
WIRE -224 192 -256 192
WIRE -384 208 -400 208
WIRE -368 208 -384 208
WIRE -384 224 -384 208
WIRE -352 256 -384 256
WIRE -384 304 -384 288
FLAG -560 -64 0
FLAG -240 -160 out
FLAG -208 -32 Voutm
FLAG -464 -176 v-
FLAG -464 -496 0
FLAG -160 -480 0
FLAG -720 -576 0
FLAG -304 -704 k1
FLAG 0 -592 k2
FLAG -400 -48 0
FLAG 16 -400 mod
FLAG -256 192 outb
FLAG -448 176 v-b
FLAG -384 304 0
FLAG -384 208 v+b
DATAFLAG -368 -96 "round(1k*$)*1m"
DATAFLAG -352 256 "round(1k*$)*1m"
SYMBOL res -544 -176 M0
WINDOW 3 29 69 Left 2
SYMATTR InstName R1
SYMATTR Value {Rers}
SYMBOL res -448 -256 M90
WINDOW 0 7 56 VBottom 2
WINDOW 3 25 56 VTop 2
SYMATTR InstName R6
SYMATTR Value {R4}
SYMBOL EIT_Semiconductors\\op_3 -352 -160 R0
WINDOW 0 -2 29 Left 2
WINDOW 123 -17 69 Invisible 2
WINDOW 3 -16 43 Invisible 2
SYMATTR InstName U2
SYMBOL MDB_sym\\source-Vmarker -416 -144 R0
SYMATTR Value V={bg}
SYMATTR InstName U3
SYMBOL MDB_sym\\source-Vmarker -240 -32 R0
SYMATTR Value V={Vout}
SYMATTR InstName U4
SYMBOL res -720 -160 R270
WINDOW 0 25 56 VTop 2
WINDOW 3 7 56 VBottom 2
SYMATTR InstName R2
SYMATTR Value {Rers}
SYMBOL EIT_Semiconductors\\op_3 -368 -608 M180
WINDOW 0 -2 29 Left 2
WINDOW 123 -17 69 Invisible 2
WINDOW 3 -16 43 Invisible 2
SYMATTR InstName U1
SYMBOL res -688 -688 R270
WINDOW 0 25 56 VTop 2
WINDOW 3 7 56 VBottom 2
SYMATTR InstName R3
SYMATTR Value 10k
SYMBOL res -576 -608 R270
WINDOW 0 25 56 VTop 2
WINDOW 3 7 56 VBottom 2
SYMATTR InstName R4
SYMATTR Value 10k
SYMBOL cap -416 -688 R270
WINDOW 0 32 32 VTop 2
WINDOW 3 0 32 VBottom 2
SYMATTR InstName C1
SYMATTR Value 10n
SYMBOL cap -448 -576 M0
SYMATTR InstName C2
SYMATTR Value 10n
SYMBOL res -288 -592 R270
WINDOW 0 25 56 VTop 2
WINDOW 3 7 56 VBottom 2
SYMATTR InstName R5
SYMATTR Value 10k
SYMBOL cap -144 -560 M0
SYMATTR InstName C3
SYMATTR Value 22n
SYMBOL EIT_Semiconductors\\op_3 -64 -592 M180
WINDOW 0 -2 29 Left 2
WINDOW 123 -17 69 Invisible 2
WINDOW 3 -16 43 Invisible 2
SYMATTR InstName U5
SYMBOL MDB_sym\\source-V -720 -688 R0
WINDOW 3 -48 160 Left 2
WINDOW 123 28 54 Left 2
WINDOW 39 0 0 Left 2
SYMATTR InstName V1
SYMATTR Value PULSE(0 5 3m 5n 5n 5u 10u)
SYMATTR Value2 AC 1
SYMBOL MDB_sym\\VacrossAB -400 -96 R0
SYMATTR InstName U6
SYMBOL diode 32 -576 R270
WINDOW 0 32 32 VTop 2
WINDOW 3 0 32 VBottom 2
SYMATTR InstName D1
SYMATTR Value 1N4148
SYMBOL res -416 96 M90
WINDOW 0 7 56 VBottom 2
WINDOW 3 25 56 VTop 2
SYMATTR InstName R8
SYMATTR Value {Rk}
SYMBOL EIT_Semiconductors\\op_3 -336 192 R0
WINDOW 0 -2 29 Left 2
WINDOW 123 -17 69 Invisible 2
WINDOW 3 -16 43 Invisible 2
SYMATTR InstName U7
SYMBOL MDB_sym\\source-Vmarker -400 208 R0
SYMATTR Value V={Vbg}
SYMATTR InstName U8
SYMBOL MDB_sym\\VacrossAB -384 256 R0
SYMATTR InstName U9
SYMBOL res -592 96 M90
WINDOW 0 7 56 VBottom 2
WINDOW 3 25 56 VTop 2
SYMATTR InstName R7
SYMATTR Value {R3}
SYMBOL res -592 160 M90
WINDOW 0 7 56 VBottom 2
WINDOW 3 25 56 VTop 2
SYMATTR InstName R9
SYMATTR Value {R2}
SYMBOL MDB_sym\\source-Vmarker -592 176 R0
SYMATTR Value V={V2}
SYMATTR InstName U10
SYMBOL MDB_sym\\source-Vmarker -592 112 R0
SYMATTR Value V={V3}
SYMATTR InstName U11
TEXT -128 -312 Left 2 !.tran 10m startup
TEXT -120 -264 Left 2 !.param analog=1\n+ bg = 0.6V\n+ R4 = 20k5\n+ Vout = 7.2V\n+ R7 = bg*R4/(Vout-bg)\n+ Rers = {R7*Rx/(R7+Rx)}\n+ Rx = 10meg
TEXT -120 -48 Left 2 ;.step param Vout list 4 5 6 7
TEXT -132 -346 Left 2 ;.ac oct 100 10 10meg
TEXT -704 8 Left 2 ;.step param Rcop list 20k5 10k 1k
TEXT -640 280 Left 2 !.param test=1\n+ Vbg = 0V\n+ V3 = 2V\n+ V2 = 2V\n+ Rk = 10k\n+ R3 = 22k\n+ R2 = 15k
