Version 4
SHEET 1 880 680
FLAG -128 112 0
SYMBOL MDB_sym\\powcalcSmall -128 64 R0
SYMATTR InstName U1
