Version 4
SHEET 1 880 680
WIRE -480 -496 -512 -496
WIRE -448 -496 -480 -496
WIRE -512 -480 -512 -496
WIRE -512 -384 -512 -400
WIRE -480 -320 -544 -320
WIRE -448 -320 -480 -320
WIRE -160 -320 -256 -320
WIRE -144 -320 -160 -320
WIRE -416 -304 -416 -320
WIRE -336 -304 -336 -336
WIRE -336 -304 -416 -304
WIRE -144 -304 -144 -320
WIRE -544 -288 -544 -320
WIRE -416 -288 -416 -304
WIRE -336 -288 -336 -304
WIRE -256 -288 -256 -320
WIRE -144 -224 -144 -240
WIRE -96 -224 -144 -224
WIRE 0 -224 -32 -224
WIRE -416 -192 -416 -224
WIRE -336 -192 -336 -208
WIRE -336 -192 -416 -192
WIRE -544 -176 -544 -208
WIRE -336 -176 -336 -192
WIRE -256 -176 -256 -208
WIRE -144 -176 -144 -224
WIRE -336 -128 -336 -176
WIRE -352 -96 -416 -96
WIRE -416 -80 -416 -96
WIRE -336 -64 -336 -80
WIRE -144 -64 -144 -96
WIRE -96 -64 -144 -64
WIRE -32 -64 -96 -64
WIRE -32 -48 -32 -64
WIRE -144 -32 -144 -64
WIRE -416 16 -416 0
WIRE -336 48 -336 16
WIRE -144 64 -144 32
WIRE -32 64 -32 32
FLAG -256 -176 0
FLAG -144 64 0
FLAG 0 -224 0
FLAG -96 -64 out3
FLAG -336 48 0
FLAG -416 16 0
FLAG -480 -496 saw2
FLAG -512 -384 0
FLAG -480 -320 pwCtrl
FLAG -544 -176 0
FLAG -800 -368 0
FLAG -32 64 0
SYMBOL ind2 -320 -192 R180
WINDOW 0 36 80 Left 2
WINDOW 3 36 40 Left 2
SYMATTR InstName L1
SYMATTR Value 10000µ
SYMATTR Type ind
SYMBOL ind2 -240 -192 R180
WINDOW 0 36 80 Left 2
WINDOW 3 36 40 Left 2
SYMATTR InstName L2
SYMATTR Value 10000µ
SYMATTR Type ind
SYMBOL MDB_sym\\source-Vmarker -336 -336 R90
SYMATTR Value V=10V
SYMATTR InstName U1
SYMBOL cap -160 -32 R0
SYMATTR InstName C1
SYMATTR Value 2200µ
SYMBOL ind2 -160 -192 R0
SYMATTR InstName L3
SYMATTR Value 25µ
SYMATTR Type ind
SYMBOL diode -160 -304 R0
SYMATTR InstName D1
SYMATTR Value 1N914
SYMBOL diode -32 -240 R90
WINDOW 0 0 32 VBottom 2
WINDOW 3 32 32 VTop 2
SYMATTR InstName D2
SYMATTR Value 1N914
SYMBOL MDB_sym\\swMDBsingle -352 -112 R0
SYMATTR InstName U2
SYMBOL res -352 -80 R0
SYMATTR InstName R1
SYMATTR Value 1
SYMBOL MDB_sym\\source-V -512 -496 R0
WINDOW 3 28 81 Invisible 2
SYMATTR InstName V1
SYMATTR Value PULSE({sawm} {sawp} 0 {.99/fsaw} {.01/fsaw} 0 {1/fsaw})
SYMBOL bv -416 -96 M0
SYMATTR InstName B1
SYMATTR Value V=if(V(saw2)-V(pwCtrl)+0.5,1,-1)
SYMBOL MDB_sym\\source-V -544 -304 R0
WINDOW 3 28 81 Invisible 2
WINDOW 123 28 107 Left 2
SYMATTR InstName V2
SYMATTR Value 1
SYMATTR Value2 AC 1
SYMBOL MDB_sym\\isoR0 -352 -176 R90
SYMATTR InstName U3
SYMBOL MDB_sym\\isoR0 -160 -336 R180
SYMATTR InstName U4
SYMBOL powcalc -800 -496 R0
SYMATTR InstName U5
SYMBOL res -48 -64 R0
SYMATTR InstName R2
SYMATTR Value 25
TEXT -304 -352 Left 2 !k L1 L2 .8
TEXT -320 -528 Left 2 ;if(x,y,z)     If x > .5, then y else z\ninv(x)        0. if x > .5, else 1.
TEXT -432 -608 Left 2 !.tran 50m startup
TEXT 136 -368 Left 2 !.param VoltageMode=1\n+ kp = 5\n+ ki = 1\n+ Att = 0.1\n \n+ sawp = 10V\n+ sawm = -10V\n+ fsaw = 100k\n+ Ue = 5V\n+ R1 = 4k7\n+ R2 = {kp*R1}\n+ Rpot = 10k\n+ Vref = 5V\n+ RL = 25\n+ L = 100u\n+ Cc = {1/(R1*ki)}\n+ tau = 100u
TEXT 120 -424 Left 2 !.options plotwinsize=0
