Version 4
SHEET 1 880 680
WIRE -1344 -768 -1376 -768
WIRE -1312 -768 -1344 -768
WIRE -1376 -752 -1376 -768
WIRE -1456 -720 -1488 -720
WIRE -1424 -720 -1456 -720
WIRE -1488 -704 -1488 -720
WIRE -1376 -656 -1376 -672
WIRE -1488 -608 -1488 -624
WIRE -528 -528 -544 -528
WIRE -512 -528 -528 -528
WIRE -512 -512 -512 -528
WIRE -1344 -464 -1360 -464
WIRE -1328 -464 -1344 -464
WIRE -1184 -464 -1216 -464
WIRE -1152 -464 -1184 -464
WIRE -992 -464 -1072 -464
WIRE -944 -464 -992 -464
WIRE -832 -464 -864 -464
WIRE -768 -464 -832 -464
WIRE -592 -464 -704 -464
WIRE -528 -464 -592 -464
WIRE -416 -464 -448 -464
WIRE -832 -432 -832 -464
WIRE -592 -432 -592 -464
WIRE -416 -432 -416 -464
WIRE -992 -416 -992 -464
WIRE -768 -416 -768 -464
WIRE -688 -416 -704 -416
WIRE -1136 -400 -1136 -416
WIRE -688 -400 -688 -416
WIRE -1120 -336 -1136 -336
WIRE -1088 -336 -1088 -416
WIRE -1088 -336 -1120 -336
WIRE -992 -320 -992 -352
WIRE -832 -320 -832 -368
WIRE -592 -320 -592 -352
WIRE -416 -320 -416 -352
WIRE -688 -304 -688 -320
FLAG -1344 -464 Ve
FLAG -1136 -400 0
FLAG -992 -320 0
FLAG -1184 -464 Ve
FLAG -416 -320 0
FLAG -832 -320 0
FLAG -464 -512 0
FLAG -528 -528 load
FLAG -1120 -336 fet
FLAG -1376 -656 0
FLAG -1488 -608 0
FLAG -1456 -720 fet
FLAG -1344 -768 load
FLAG -592 -320 0
FLAG -416 -464 out
FLAG -992 -464 s
FLAG -832 -464 A
FLAG -688 -304 0
SYMBOL source-Vmarker -1360 -464 R0
SYMATTR Value V={Ve}
SYMATTR InstName U1
SYMBOL sw -1168 -464 R270
WINDOW 0 52 17 VRight 2
WINDOW 3 51 78 VRight 2
SYMATTR InstName S1
SYMATTR Value swT
SYMBOL ind -960 -448 R270
WINDOW 0 30 56 VTop 2
WINDOW 3 6 56 VBottom 2
SYMATTR InstName L1
SYMATTR Value {L}
SYMATTR SpiceLine Rser=1
SYMBOL cap -848 -432 R0
SYMATTR InstName C1
SYMATTR Value {CA}
SYMBOL sw -432 -464 R90
WINDOW 0 51 59 VRight 2
WINDOW 3 72 41 VRight 2
SYMATTR InstName S2
SYMATTR Value swL
SYMBOL res -432 -448 R0
SYMATTR InstName R1
SYMATTR Value {RL}
SYMBOL source-V -1376 -768 R0
WINDOW 3 -14 145 Left 2
WINDOW 123 0 0 Left 2
WINDOW 39 0 0 Left 2
SYMATTR Value PULSE(-1.1 1.1 {T_load})
SYMATTR InstName V1
SYMBOL source-V -1488 -720 R0
WINDOW 3 -14 145 Left 2
WINDOW 123 0 0 Left 2
WINDOW 39 0 0 Left 2
SYMATTR Value PULSE(-1 1 0 100n 100n {PW/fs} {1/fs})
SYMATTR InstName V2
SYMBOL res -608 -448 R0
SYMATTR InstName R2
SYMATTR Value 10k
SYMBOL MDB_sym\\jumperRes -736 -480 R0
SYMATTR InstName U2
SYMBOL source-I -688 -320 R180
WINDOW 0 29 73 Left 2
WINDOW 3 29 17 Left 2
WINDOW 123 0 0 Left 2
WINDOW 39 0 0 Left 2
SYMATTR InstName I1
SYMATTR Value 1.333
SYMBOL diode -976 -352 R180
WINDOW 0 24 72 Left 2
WINDOW 3 24 0 Left 2
SYMATTR InstName D1
SYMATTR Value DI_UF1004
TEXT -1120 -904 Left 2 ;.model swL SW(Ron=1m Roff=100Meg Vt=0 Vh=-.5 )\n.model swT SW(Ron=1m Roff=100meg Vt=0 Vh=-.5 )\n;.model Dx D ( Is={I0/exp(0.7/26m)} Rs = 0.1 Cjo = 0p)\n;.model nmosx nmos (Kp={2*K} VT0=2.5)
TEXT -1064 -664 Left 2 !.param fs = 10k\n.param T_load = 0\n.param Ve = 10V\n.param PW = 0.5
TEXT -840 -664 Left 2 !.param CA = 1000u\n.param L = 100u\n.param RL = 22
TEXT -1464 -328 Left 2 !.tran 0 10m {10m-400u}
TEXT -728 -704 Left 2 ;.step param L 10u 100u 10u
TEXT -288 -816 Left 2 ;Spulen-Energie \nEL = 0.5*L1*IL^2\n \nVerlauf des Spulenstromes\n-------------------------------------------\nIL_on = (Ve-Vca)/L1*t+IL0\nIL_off = -(Vca+VD0)/L1*t+IL0-2\n \nWenn eine stationäre Vca gefordert ist,\nmuss mittlerer Kondensatorstrom _IL=0A\ngelten da sich die Vca sonst ändern würde\n \nTastverhältniss p\n---------------------------\np = t1/T  \nTastverhältniss p ergibt sich aus der \non-zeit t1 und der Periodendauer T\n \nd_IL_on = (Ve-Va)/L1*t   für 0<t<t1\nd_IL_off = -(Va+VD0)/L1*(T-t1)    für t1<t<T\n \nWegen Vca=const. muss gelten:\n|d_IL_on| = |d_IL_off|\n \np = t1/T = (Va+VD0)/(Ve+VD0)\nVa = t1/T*(Ve+VD0)
TEXT -1144 -72 Left 2 ;.MEAS TRAN d_IL_on FIND time WHEN I(L1)=I(I1) cross=1 TD={10m-400u}
TEXT -1128 -976 Left 2 !.model swL SW(Ron=1m Roff=100Meg Vt=0 Vh=-.5 )\n.model swT SW(Ron=1m Roff=100meg Vt=0 Vh=-.5 )
