Version 4
SHEET 1 880 680
WIRE 32 96 32 16
WIRE 0 112 -64 112
WIRE -64 176 -64 112
WIRE 32 176 32 144
WIRE -64 272 -64 256
WIRE 32 272 32 256
FLAG -64 272 0
FLAG 32 272 0
SYMBOL source-V -64 160 R0
WINDOW 3 -22 173 Left 2
WINDOW 123 0 0 Left 2
WINDOW 39 -75 197 Left 2
WINDOW 0 -75 171 Left 2
SYMATTR Value PULSE(-5 5 0 1n 1n 5u 10u)
SYMATTR SpiceLine Rser=1
SYMATTR InstName V1
SYMBOL source-Vmarker 32 16 R0
SYMATTR Value V=10V
SYMATTR InstName U2
SYMBOL res 16 272 M180
WINDOW 0 36 76 Left 2
WINDOW 3 36 40 Left 2
SYMATTR InstName R1
SYMATTR Value 10
SYMBOL MDB_sym\\swMDBsingle 16 112 R0
SYMATTR InstName U4
TEXT -140 376 Left 2 !.tran 10m
