Version 4
SHEET 1 1060 680
WIRE 576 -240 512 -240
WIRE 512 -208 512 -240
WIRE 512 -112 512 -128
WIRE 176 -48 144 -48
WIRE 176 -16 144 -16
WIRE 208 0 208 -16
WIRE 304 80 224 80
WIRE 384 80 368 80
WIRE 512 80 384 80
WIRE 384 160 384 80
WIRE 416 160 384 160
WIRE 512 176 512 80
WIRE 512 176 480 176
WIRE 544 176 512 176
WIRE 640 176 624 176
WIRE 704 176 640 176
WIRE 80 192 32 192
WIRE 112 192 80 192
WIRE 224 192 224 80
WIRE 224 192 192 192
WIRE 256 192 224 192
WIRE 384 192 336 192
WIRE 416 192 384 192
WIRE 816 192 768 192
WIRE 832 192 816 192
WIRE 992 192 992 96
WIRE 992 192 976 192
WIRE 32 208 32 192
WIRE 704 208 688 208
WIRE 32 224 32 208
WIRE 640 224 640 176
WIRE 384 240 384 192
WIRE 688 256 688 208
WIRE 816 256 816 192
WIRE 816 256 688 256
WIRE 992 256 992 192
WIRE 32 304 32 288
WIRE 512 336 480 336
WIRE 544 336 512 336
WIRE 480 352 480 336
WIRE 992 368 992 336
WIRE 480 432 480 416
FLAG 384 304 0
FLAG 448 208 V+
FLAG 448 144 V-
FLAG 80 192 in
FLAG 512 80 f1
FLAG 176 -48 V+
FLAG 208 -16 V-
FLAG 208 0 0
FLAG 640 288 0
FLAG 736 160 V+
FLAG 736 224 V-
FLAG 32 304 0
FLAG 992 368 0
FLAG 992 192 out
FLAG 816 192 out0
FLAG 480 432 0
FLAG 512 336 a
FLAG 512 -112 0
SYMBOL res 208 176 R90
WINDOW 0 0 56 VBottom 2
WINDOW 3 32 56 VTop 2
SYMATTR InstName R1
SYMATTR Value 10k
SYMBOL res 352 176 R90
WINDOW 0 0 56 VBottom 2
WINDOW 3 32 56 VTop 2
SYMATTR InstName R2
SYMATTR Value 10k
SYMBOL cap 368 240 R0
WINDOW 3 -38 52 Left 2
WINDOW 0 -31 32 Left 2
SYMATTR Value 10n
SYMATTR InstName C1
SYMBOL cap 368 64 R90
WINDOW 0 0 32 VBottom 2
WINDOW 3 32 32 VTop 2
SYMATTR InstName C2
SYMATTR Value 10n
SYMBOL MDB_sym\\source-Vmarker 144 -48 R0
SYMATTR Value V={V1}
SYMATTR InstName U2
SYMBOL MDB_sym\\source-Vmarker 144 -16 R0
SYMATTR Value V={-V1}
SYMATTR InstName U3
SYMBOL cap 624 224 R0
WINDOW 3 -43 31 Left 2
WINDOW 0 -38 6 Left 2
SYMATTR Value 22n
SYMATTR InstName C3
SYMBOL res 528 192 R270
WINDOW 0 25 56 VTop 2
WINDOW 3 7 56 VBottom 2
SYMATTR InstName R3
SYMATTR Value 14k7
SYMBOL schottky 832 208 R270
WINDOW 0 32 32 VTop 2
WINDOW 3 0 32 VBottom 2
SYMATTR InstName D1
SYMATTR Value BAT54
SYMATTR Description Diode
SYMATTR Type diode
SYMBOL res 880 208 R270
WINDOW 0 25 56 VTop 2
WINDOW 3 7 56 VBottom 2
SYMATTR InstName R4
SYMATTR Value 1
SYMBOL MDB_sym\\source-V 32 192 R0
WINDOW 3 -148 150 Left 2
WINDOW 123 -148 176 Left 2
WINDOW 39 0 0 Left 2
SYMATTR Value PULSE(0 5 0 10n 10n {p/(2*f0)} {1/(2*f0)})
SYMATTR Value2 AC 1
SYMATTR InstName V1
SYMBOL res 976 240 R0
SYMATTR InstName R5
SYMATTR Value 100k
SYMBOL EIT_Semiconductors\\op_3 448 176 R0
WINDOW 123 -17 69 Invisible 2
WINDOW 3 -16 43 Invisible 2
SYMATTR InstName U1
SYMBOL EIT_Semiconductors\\op_3 736 192 M180
WINDOW 123 -17 69 Invisible 2
WINDOW 3 -16 43 Invisible 2
SYMATTR InstName U4
SYMBOL MDB_sym\\source-BVmini 480 384 R0
SYMATTR Value V=sin(2*pi*f0*time)
SYMATTR InstName B1
SYMBOL MDB_sym\\source-V 512 -224 R0
WINDOW 3 -148 150 Left 2
WINDOW 123 -148 176 Left 2
WINDOW 39 0 0 Left 2
SYMATTR Value SINE(0 1 {10*f0})
SYMATTR Value2 AC 1
SYMATTR InstName V2
TEXT -104 400 Left 2 !.param feedbackInject=1\n+ f0 = 100k\n+ p = .5\n+ V1 = 5V
TEXT -104 528 Left 2 !.tran {500/f0}
TEXT -120 552 Left 2 ;.ac oct 10 1 10meg
TEXT 48 432 Left 2 !.options plotwinsize=0
