Version 4
SHEET 1 2240 1604
WIRE 608 -880 608 -912
WIRE 304 -784 288 -784
WIRE 416 -784 384 -784
WIRE 528 -784 416 -784
WIRE 288 -752 288 -784
WIRE 416 -752 416 -784
WIRE 608 -752 608 -800
WIRE 528 -736 528 -784
WIRE 288 -640 288 -672
WIRE 416 -640 416 -688
WIRE 416 -640 288 -640
WIRE 528 -640 528 -688
WIRE 528 -640 416 -640
WIRE 608 -640 608 -672
WIRE 608 -640 528 -640
WIRE 416 -608 416 -640
WIRE 688 -480 656 -480
WIRE 816 -480 800 -480
WIRE 448 -416 448 -432
WIRE 688 -352 656 -352
WIRE 816 -352 800 -352
WIRE 448 -320 448 -336
WIRE 448 -288 448 -320
WIRE 448 -288 416 -288
WIRE 480 -288 448 -288
WIRE 416 -240 416 -288
WIRE 480 -240 480 -288
WIRE 768 -224 736 -224
WIRE 864 -224 848 -224
WIRE 416 -192 416 -240
WIRE 480 -192 480 -240
WIRE 768 -144 736 -144
WIRE 864 -144 848 -144
WIRE 416 -96 416 -112
WIRE 480 -96 480 -112
WIRE 784 512 752 512
WIRE 816 512 784 512
WIRE 960 512 896 512
WIRE 992 512 960 512
WIRE 1008 512 992 512
WIRE 1120 512 1072 512
WIRE 1168 512 1120 512
WIRE 1232 512 1216 512
WIRE 1248 512 1232 512
WIRE 784 528 784 512
WIRE 800 528 784 528
WIRE 1120 528 1120 512
WIRE 960 560 960 512
WIRE 1248 576 1248 512
WIRE 944 592 896 592
WIRE 896 608 896 592
WIRE 896 608 880 608
WIRE 896 624 896 608
WIRE 1120 624 1120 608
WIRE 1120 624 1104 624
WIRE 1120 640 1120 624
WIRE 960 688 960 608
WIRE 1120 720 1120 704
WIRE 1248 720 1248 656
FLAG 960 688 0
FLAG 784 512 Ve
FLAG 1120 720 0
FLAG 880 608 fet
FLAG 960 512 s
FLAG 1120 512 A
FLAG 1248 720 0
FLAG 1104 624 ca
FLAG 896 688 0
FLAG 864 -224 0
FLAG 864 -144 0
FLAG 656 -352 0
FLAG 816 -352 0
FLAG 656 -480 0
FLAG 816 -480 0
FLAG 480 -96 0
FLAG 416 -96 0
FLAG 448 -432 0
FLAG 416 -608 0
FLAG 608 -912 0
FLAG 416 -784 DA
DATAFLAG 784 528 ""
DATAFLAG 1232 512 "round(100*$)/100"
DATAFLAG 992 512 "round(100*$)/100"
DATAFLAG 416 -240 "round(100*I(R1))/100"
DATAFLAG 480 -240 "round(100*I(R2))/100"
DATAFLAG 448 -320 "round(100*I(I2))/100"
SYMBOL source-Vmarker 752 512 R0
SYMATTR Value V={Ve}
SYMATTR InstName U1
SYMBOL schottky 1008 528 R270
WINDOW 0 32 32 VTop 2
WINDOW 3 0 32 VBottom 2
SYMATTR InstName D1
SYMATTR Value Dx
SYMATTR Description Diode
SYMATTR Type diode
SYMBOL ind 800 528 R270
WINDOW 0 30 56 VTop 2
WINDOW 3 6 56 VBottom 2
SYMATTR InstName L1
SYMATTR Value {L1}
SYMATTR SpiceLine Rser=1n
SYMBOL cap 1104 640 R0
SYMATTR InstName C1
SYMATTR Value {CA}
SYMBOL source-I 1248 656 M180
WINDOW 0 29 73 Left 2
WINDOW 3 29 17 Left 2
WINDOW 123 0 0 Left 2
WINDOW 39 0 0 Left 2
SYMATTR InstName I1
SYMATTR Value {Ia}
SYMBOL res 400 -208 R0
SYMATTR InstName R1
SYMATTR Value 10
SYMBOL res 464 -208 R0
SYMATTR InstName R2
SYMATTR Value 20
SYMBOL res 1104 512 R0
SYMATTR InstName R3
SYMATTR Value 1µ
SYMBOL MDB_sym\\jumper 1200 448 R0
WINDOW 0 -7 50 Invisible 2
SYMATTR InstName J1
SYMBOL source-V 896 592 R0
WINDOW 3 -219 150 Left 2
WINDOW 123 0 0 Left 2
WINDOW 39 0 0 Left 2
WINDOW 0 -47 91 Left 2
SYMATTR Value PULSE(-1 1 0 1n 1n {pw*T} {T})
SYMATTR InstName V1
SYMBOL MDB_sym\\swMDBsingle 944 576 R0
SYMATTR InstName U2
SYMATTR Value2 Ron=1m  Roff=100meg
SYMBOL res 752 -208 R270
WINDOW 0 25 56 VTop 2
WINDOW 3 7 56 VBottom 2
SYMATTR InstName R4
SYMATTR Value 1
SYMBOL res 864 -128 M270
WINDOW 0 25 56 VTop 2
WINDOW 3 7 56 VBottom 2
SYMATTR InstName R5
SYMATTR Value 1
SYMBOL MDB_sym\\isoR 784 -352 R270
WINDOW 0 4 0 VTop 2
SYMATTR InstName R6
SYMATTR Value 1
SYMBOL MDB_sym\\isoR 784 -480 R270
WINDOW 0 4 0 VTop 2
SYMATTR InstName R7
SYMATTR Value 1
SYMBOL source-Vmarker 736 -224 R0
SYMATTR Value V={d_IL_on}
SYMATTR InstName U3
SYMBOL source-Vmarker 736 -144 R0
SYMATTR Value V={d_IL_off}
SYMATTR InstName U4
SYMBOL bi 688 -480 R270
WINDOW 0 32 40 VTop 2
WINDOW 3 -32 40 VBottom 2
SYMATTR InstName B1
SYMATTR Value I={Ve/L1*time}
SYMBOL bi 688 -352 R270
WINDOW 0 32 40 VTop 2
WINDOW 3 -32 40 VBottom 2
SYMATTR InstName B2
SYMATTR Value I={-(Va+Vd0)/L1*(t2-time)}
SYMBOL MDB_sym\\source-I 448 -336 R180
WINDOW 0 -27 40 VBottom 2
WINDOW 3 27 40 VTop 2
WINDOW 123 0 0 Left 2
WINDOW 39 0 0 Left 2
SYMATTR InstName I2
SYMATTR Value 1
SYMBOL diode 400 -752 R0
SYMATTR InstName D2
SYMATTR Value Dx3
SYMBOL MDB_sym\\source-V 288 -768 R0
WINDOW 123 0 0 Left 2
WINDOW 39 0 0 Left 2
SYMATTR InstName V2
SYMATTR Value 0
SYMBOL res 592 -896 R0
SYMATTR InstName R8
SYMATTR Value 1µ
SYMBOL res 288 -768 R270
WINDOW 0 25 56 VTop 2
WINDOW 3 7 56 VBottom 2
SYMATTR InstName R9
SYMATTR Value 1µ
SYMBOL bi 608 -752 R0
SYMATTR InstName B3
SYMATTR Value I={Is*(1+V(DA)/(n*VT))}
TEXT 376 8 Left 2 !.param T = 8us \n+ t2 = T;\n+ t1 = 0.75*T\n+ pw = {pwc}; t1/T\n+ Va = 10V\n;+ Va = {Vac}\n+ Ia = .15A\n+ CA = 47uF\n+ Vd0 = .5V\n+ T_load = 0\n+ Ve = 5V\n+ L1 = 20uH
TEXT 608 168 Left 2 ;.tran 0 8m {1*(8m-3*T)} \n.op
TEXT 904 -672 Left 2 !; _Boostconverter\n; _........................\n; Spulen-Energie \n; EL = 0.5*L1*IL^2\n \n; Verlauf des Spulenstromes\n; ----------------------------------------\n; IL_on = Ve/L1*time+IL01\n; IL_off = -(Va+Vd0)/L1*(t2-time)+IL02\n \n; Wenn eine stationäre Vca gefordert ist,\n; muss mittlerer Kondensatorstrom _IL=0A\n; gelten da sich die Vca sonst ändern würde\n \n; Tastverhältniss p\n; ----------------------------------------\n; p = t1/T  \n; Tastverhältniss p ergibt sich aus der dem\n; Verhältniss der on-zeit t1 und der Perioden-\n; dauer T\n \n; Relative Stromänderung \n; ----------------------------------------\n.param d_IL_on = {Ve/L1*t1}\n; für 0<t<t1\n.param d_IL_off = {-(Va+Vd0)/L1*(t2-t1)}\n; für t1<t<t2 (T)\n \n; Wegen Vca=const. muss gelten:\n; ----------------------------------------\n; |d_IL_on| = |d_IL_off|\n \n; p = t1/T für t2 = T\n.param pwc = (Va+Vd0-Ve)/(Va+Vd0)\n.param Vac = (Vd0-Ve)*T/(t1-T)\n \n; Messungen\n; ----------------------------------------\n; .MEAS TRAN dtVa TIME\n; + TRIG MIN I(L1) cross=1\n; + TARG MAX I(L1) cross=1
TEXT 1400 -408 Left 2 !; ---------------------------------------------------\n; Tastverhältniss\n; ---------------------------------------------------\n.MEAS TRAN t0 FIND time*1e6 WHEN I(L1)=I(I1) cross=1 TD=1u\n.MEAS TRAN t1 FIND time*1e6 WHEN I(L1)=I(I1) cross=2 TD=1u\n.MEAS TRAN t2 FIND time*1e6 WHEN I(L1)=I(I1) cross=3 TD=1u\n.MEAS TRAN trise FIND time WHEN I(L1)=I(I1) rise=1 TD=1u\n.MEAS TRAN tfall FIND time WHEN I(L1)=I(I1) fall=1 TD=1u\n \n.MEAS TRAN T PARAM round(t2-t0)\n.MEAS TRAN ton PARAM round(t1-t0)\n \n; ---------------------------------------------------\n; Rippelspannung berechnen\n; ---------------------------------------------------\n.MEAS TRAN area_ICa INTEG I(CA)\n+ TRIG I(CA)=0 RISE=1\n+ TARG I(CA)=0 FALL=1\n \n.MEAS TRAN vrip PARAM area_ICa/CA\n \n; ---------------------------------------------------\n; Rippelspannung direkt messen\n; ---------------------------------------------------\n.MEAS TRAN vpp pp V(A) \n+ TRIG time=0\n+ TARG time=300u\n \n; ---------------------------------------------------\n; ESR\n; ---------------------------------------------------\n.MEAS TRAN ILmax MAX I(L1) TD=10u\n.MEAS TRAN ILmin MIN I(L1) TD=10u\n.MEAS TRAN p1 FIND V(a,ca) WHEN I(L1)=ILmin fall=last\n.MEAS TRAN p2 FIND V(a,ca) WHEN I(L1)=ILmax rise=last\n.MEAS TRAN dVa PARAM abs(p2-p1)\n.MEAS TRAN dIL PARAM abs(ILmax-ILmin)\n.MEAS TRAN Rser PARAM dVa/dIL\n \n; ---------------------------------------------------\n; Model defines\n; ---------------------------------------------------\n.model swL SW(Ron=1m Roff=100Meg Vt=0 Vh=-.5 )\n.model swT SW(Ron=1m Roff=100meg Vt=0 Vh=-.5 )\n.model Dx D (Vfwd = {VD0} Ron = 1 Roff 100meg)
TEXT 656 624 Left 2 ;_Boostconverter\n_........................
TEXT 680 400 Left 2 !.ic V(a) = {Va}
TEXT 192 -1024 Left 2 !.model Dx3 D( Is={I0/exp(Vd01/(n*VT))} n={n} )\n.param n= 1\n+ Is = 1e-15\n+ VT = 26e-3\n+ Vd01 = 0.65\n+ I0 = 20mA
TEXT 358 -938 Left 2 !.dc V2 .5 .95 .01
RECTANGLE Normal 1328 784 624 448 2
