Version 4
SHEET 1 1136 680
WIRE -288 -144 -304 -144
WIRE -256 -144 -288 -144
WIRE -128 -144 -176 -144
WIRE -64 -144 -128 -144
WIRE 80 -144 16 -144
WIRE 144 -144 80 -144
WIRE 192 -144 144 -144
WIRE 288 -144 192 -144
WIRE 192 -128 192 -144
WIRE 288 -128 288 -144
WIRE 80 -96 80 -144
WIRE -128 -80 -128 -144
WIRE -192 -64 -192 -80
WIRE 192 -64 192 -80
WIRE 288 -64 288 -80
WIRE -240 -48 -240 -80
WIRE -240 48 -240 32
WIRE -128 48 -128 -16
WIRE 80 48 80 -32
WIRE 192 48 192 16
WIRE 288 48 288 16
WIRE 320 144 288 144
WIRE 336 144 320 144
WIRE 320 176 288 176
WIRE 336 176 320 176
WIRE 320 208 288 208
WIRE 336 208 320 208
FLAG 80 48 0
FLAG 192 48 0
FLAG -128 48 0
FLAG -128 -144 s1
FLAG 144 -144 a1
FLAG 288 48 0
FLAG -192 -64 0
FLAG -240 48 0
FLAG -288 -144 e
FLAG 320 176 gnd2
FLAG 320 144 e
FLAG 320 208 p
SYMBOL ind -80 -128 R270
WINDOW 0 30 56 VTop 2
WINDOW 3 6 56 VBottom 2
SYMATTR InstName L1
SYMATTR Value {L1}
SYMBOL cap 64 -96 R0
WINDOW 3 22 59 Left 2
WINDOW 39 22 85 Left 2
SYMATTR Value {Ca}
SYMATTR InstName C1
SYMATTR SpiceLine Rser=.1
SYMBOL res 208 -80 M0
WINDOW 0 -27 34 Left 2
WINDOW 3 -52 63 Left 2
SYMATTR InstName R1
SYMATTR Value {RL}
SYMBOL diode -112 -16 R180
WINDOW 0 -37 34 Left 2
WINDOW 3 -36 12 Left 2
SYMATTR InstName D1
SYMATTR Value Dx
SYMBOL MDB_sym\\source-I 288 16 M180
WINDOW 123 0 0 Left 2
WINDOW 39 0 0 Left 2
SYMATTR InstName I1
SYMATTR Value {Ia}
SYMBOL MDB_sym\\jumper 352 -96 R90
SYMATTR InstName X1
SYMBOL MDB_sym\\jumper 272 -96 R90
SYMATTR InstName X2
SYMBOL crtl-V-S -272 -144 R270
WINDOW 0 -22 81 VRight 2
WINDOW 3 27 35 VRight 2
SYMATTR InstName S1
SYMATTR Value SWx
SYMBOL source-V -240 -64 R0
WINDOW 3 -70 147 Left 2
WINDOW 123 0 0 Left 2
WINDOW 39 -70 173 Left 2
WINDOW 0 -32 16 Left 2
SYMATTR Value PULSE(0 2.5 1u 1p 1p {p*T} {T})
SYMATTR SpiceLine Rser={Ri}
SYMATTR InstName V1
SYMBOL MDB_sym\\source-Vmarker 288 176 R0
SYMATTR Value V=1u
SYMATTR InstName U1
SYMBOL MDB_sym\\source-Vmarker 288 144 R0
SYMATTR Value V={Ve}
SYMATTR InstName U2
SYMBOL MDB_sym\\source-Vmarker 288 208 R0
SYMATTR Value V=1
SYMATTR InstName U3
TEXT 416 -304 Left 2 !.meas TRAN  ILmax MAX   I(L1)\n.meas TRAN  ILmin MIN   I(L1)\n.meas TRAN  dIL   PARAM ILmax-ILmin\n \n.meas TRAN  ICmax MAX   I(C1)\n.meas TRAN  ICmin MIN   I(C1)\n \n.meas TRAN  t1    time  when I(C1)=ICmax cross=last\n.meas TRAN  t01  time  when I(C1)=0 rise=last\n.meas TRAN  t02  time  when I(C1)=0 fall=last\n \n.meas TRAN  dtc1     PARAM t1-t01 \n.meas TRAN  dtc2     PARAM t02-t1 \n.meas TRAN  A1       PARAM 1/2*dtc1*ICmax \n.meas TRAN  A2       PARAM 1/2*dtc2*ICmax\n.meas TRAN charge PARAM A1+A2 \n.meas TRAN Vr_calc PARAM {charge/Ca}\n \n.meas TRAN Vr PP V(a)
TEXT 448 -824 Left 2 ;.param T=20u \n.param Ca=220u\n.param L = 50uH \n.param RL=7.13\n.param Vd0 = .8V\n.param p={(Va+Vd0)/(Ve+Vd0)}\n.param Va = 5V\n.param Ve = 15V
TEXT 416 -576 Left 2 !;~~~ Model parameters ~~~\n.param Id0=10A\n.param VT=26mV\n.param n=1.2\n.param Isd2=Id0/exp( Vd0/( n*VT ) )\n \n.model swx SW (Ron=1m Roff=1T Vt=1.25 Vh=-0.5)\n.model Dx   D (Ron=1m Roff=1T Vfwd={Vd0})\n.model Dx2 D (Is={Isd2} N={n})
TEXT -256 -760 Left 2 !.param \n+ Ve = 12V\n+ Va = 5V\n+ Vd0 = 0.5V\n+ T = 20us\n+ L1 = 100uH  \n+ Ca = 20µF\n+ Cpar = 200pF\n+ t1 = p*T\n+ Ia1 = 1A\n+ p = 0.3 \n \n+ ILmax1 = Ve/20uH*t1\n;+ L1= Ve*t1/(( ILmax1-IL_diff))\n \n+ Ia = Ia1\n+ Ri = 1u\n+ RL = 10
TEXT 158 -322 Left 2 !.tran 25m
TEXT 176 -296 Left 2 ;.op
TEXT 48 -240 Left 2 !.step param p .1 1 .1
