Version 4
SHEET 1 956 1144
WIRE -576 -192 -592 -192
WIRE 112 -32 48 -32
WIRE 128 -32 112 -32
WIRE 208 -32 128 -32
WIRE 128 16 128 -32
WIRE 64 32 32 32
WIRE 64 96 64 80
WIRE 128 128 128 96
WIRE 192 128 128 128
WIRE 256 128 192 128
WIRE 288 128 256 128
WIRE 400 128 368 128
WIRE 464 128 400 128
WIRE 496 128 496 64
WIRE 496 128 464 128
WIRE 624 128 496 128
WIRE 192 144 192 128
WIRE 400 144 400 128
WIRE 496 144 496 128
WIRE 624 144 624 128
WIRE -304 160 -352 160
WIRE -256 160 -304 160
WIRE 128 160 128 128
WIRE 256 160 256 128
WIRE -304 176 -304 160
WIRE 192 192 192 176
WIRE 368 192 352 192
WIRE 400 192 400 176
WIRE 400 192 368 192
WIRE 624 240 624 224
WIRE 128 272 128 224
WIRE 192 272 192 256
WIRE 256 272 256 240
WIRE 400 272 400 256
WIRE 496 272 496 224
WIRE -400 288 -416 288
WIRE -304 288 -304 256
WIRE -304 288 -320 288
WIRE -464 352 -464 304
WIRE -400 352 -464 352
WIRE -304 368 -304 288
WIRE -304 368 -336 368
WIRE -240 368 -304 368
WIRE -400 384 -416 384
WIRE -368 416 -368 400
WIRE -688 464 -704 464
WIRE -544 464 -608 464
WIRE -512 464 -544 464
WIRE -416 464 -416 384
WIRE -416 464 -432 464
WIRE -400 464 -416 464
WIRE -304 464 -304 368
WIRE -304 464 -320 464
WIRE -544 512 -544 464
WIRE -704 544 -704 464
WIRE -672 544 -704 544
WIRE -544 560 -544 512
WIRE -544 560 -608 560
WIRE -672 576 -752 576
WIRE -704 672 -704 544
WIRE -672 672 -704 672
WIRE -496 672 -592 672
WIRE -96 768 -112 768
WIRE -16 768 -96 768
WIRE 192 768 64 768
WIRE 256 768 192 768
WIRE 368 768 336 768
WIRE 432 768 368 768
WIRE 464 768 432 768
WIRE 512 768 464 768
WIRE 592 768 512 768
WIRE -112 784 -112 768
WIRE 64 784 64 768
WIRE 192 784 192 768
WIRE 368 784 368 768
WIRE 464 784 464 768
WIRE 592 784 592 768
WIRE -240 800 -272 800
WIRE -192 800 -240 800
WIRE -16 800 -16 768
WIRE 256 816 256 768
WIRE -192 880 -192 848
WIRE -112 880 -112 864
WIRE 64 880 64 864
WIRE 192 880 192 864
WIRE 336 880 320 880
WIRE 368 880 368 864
WIRE 368 880 336 880
WIRE 464 880 464 864
WIRE 592 880 592 864
WIRE -368 896 -384 896
WIRE -240 896 -240 800
WIRE -240 896 -288 896
WIRE -16 912 -16 848
WIRE 256 960 256 896
WIRE 368 960 368 944
WIRE -384 976 -384 896
WIRE -352 976 -384 976
WIRE -112 976 -112 960
WIRE 64 976 64 960
WIRE 192 976 192 944
WIRE -240 992 -240 896
WIRE -240 992 -288 992
WIRE -352 1008 -432 1008
WIRE -384 1104 -384 976
WIRE -352 1104 -384 1104
WIRE 512 1104 512 768
WIRE 512 1104 -272 1104
FLAG 400 272 0
FLAG 128 272 0
FLAG 496 272 0
FLAG 464 128 a
FLAG 192 128 s
FLAG 64 96 0
FLAG 32 32 crtl
IOPIN 32 32 In
FLAG -672 -192 0
FLAG 368 192 ca
FLAG 192 272 0
FLAG 256 272 0
FLAG -368 416 0
FLAG -688 304 0
FLAG -608 304 saw
FLAG -544 512 r
FLAG 624 240 0
FLAG 368 960 0
FLAG 464 880 0
FLAG 432 768 a-l
FLAG 192 768 s-l
FLAG 336 880 ca-l
FLAG 192 976 0
FLAG 256 960 0
FLAG 592 880 0
FLAG -112 976 0
FLAG -96 768 p
FLAG -192 880 0
FLAG -272 800 r-l
FLAG 64 976 0
FLAG -16 912 0
FLAG -432 1008 0
FLAG -464 304 saw
FLAG -416 288 0
FLAG -240 368 crtl
IOPIN -240 368 Out
FLAG 112 -32 +Ve
FLAG -304 160 +Ve
FLAG -496 672 a
IOPIN -496 672 In
FLAG 496 64 a
IOPIN 496 64 Out
SYMBOL ind 272 144 R270
WINDOW 0 30 56 VTop 2
WINDOW 3 6 56 VBottom 2
SYMATTR InstName L1
SYMATTR Value 20µ
SYMBOL cap 384 192 R0
WINDOW 3 28 55 Left 2
SYMATTR InstName C1
SYMATTR Value 22µ
SYMBOL schottky 144 224 R180
WINDOW 0 24 72 Left 2
WINDOW 3 24 0 Left 2
SYMATTR InstName D1
SYMATTR Value dx
SYMATTR Description Diode
SYMATTR Type diode
SYMBOL res 480 128 R0
SYMATTR InstName R1
SYMATTR Value {RLoad}
SYMBOL crtl-V-S 128 0 R0
SYMATTR InstName S1
SYMATTR Value swx
SYMBOL source-V -576 -192 R90
WINDOW 123 0 0 Left 2
WINDOW 39 0 0 Left 2
WINDOW 0 -10 120 VRight 2
WINDOW 3 -43 -6 VRight 2
SYMATTR InstName V3
SYMATTR Value SINE(0 1 1meg)
SYMBOL cap 176 192 R0
SYMATTR InstName C2
SYMATTR Value 100p
SYMBOL res 240 144 R0
SYMATTR InstName R3
SYMATTR Value 10k
SYMBOL EIT_Semiconductors\\comp_oc -368 368 R0
SYMATTR InstName U1
SYMBOL source-V -592 304 R90
WINDOW 3 -40 -88 VRight 2
WINDOW 123 0 0 Left 2
WINDOW 39 0 0 Left 2
WINDOW 0 30 62 Left 2
SYMATTR Value PULSE(2 4 0 8u 2u 1p 10u)
SYMATTR InstName V2
SYMBOL res -416 448 R90
WINDOW 0 7 56 VBottom 2
WINDOW 3 25 56 VTop 2
SYMATTR InstName R6
SYMATTR Value 1k
SYMBOL res -304 448 R90
WINDOW 0 7 56 VBottom 2
WINDOW 3 25 56 VTop 2
SYMATTR InstName R7
SYMATTR Value 100k
SYMBOL EIT_Semiconductors\\op_3 -640 560 R0
WINDOW 123 -17 69 Invisible 2
WINDOW 3 -16 43 Invisible 2
SYMATTR InstName U2
SYMBOL source-Vmarker -752 576 R0
WINDOW 3 -58 1 Center 2
SYMATTR Value V=3.3V
SYMATTR InstName U3
SYMBOL res -592 448 R90
WINDOW 0 7 56 VBottom 2
WINDOW 3 25 56 VTop 2
SYMATTR InstName R8
SYMATTR Value {kr*1k}
SYMBOL res -576 656 R90
WINDOW 0 7 56 VBottom 2
WINDOW 3 25 56 VTop 2
SYMATTR InstName R9
SYMATTR Value 1k
SYMBOL source-I 624 224 R180
WINDOW 0 29 73 Left 2
WINDOW 3 -103 -58 Left 2
WINDOW 123 0 0 Left 2
WINDOW 39 0 0 Left 2
SYMATTR InstName I1
SYMATTR Value PULSE(0 500m 200u)
SYMBOL ind 240 784 R270
WINDOW 0 30 56 VTop 2
WINDOW 3 6 56 VBottom 2
SYMATTR InstName L2
SYMATTR Value 20µ
SYMBOL cap 352 880 R0
SYMATTR InstName C3
SYMATTR Value 22µ ic=3.3
SYMBOL res 448 768 R0
SYMATTR InstName R10
SYMATTR Value 8
SYMBOL res 352 768 R0
SYMATTR InstName RS1
SYMATTR Value 100m
SYMBOL cap 176 880 R0
SYMATTR InstName C4
SYMATTR Value 100p
SYMBOL res 176 768 R0
SYMATTR InstName R11
SYMATTR Value 10
SYMBOL res 240 800 R0
SYMATTR InstName R12
SYMATTR Value 10k
SYMBOL EIT_Semiconductors\\op_3 -320 992 R0
SYMATTR InstName U5
SYMBOL res -272 880 R90
WINDOW 0 7 56 VBottom 2
WINDOW 3 25 56 VTop 2
SYMATTR InstName R17
SYMATTR Value {kr*1k}
SYMBOL res -256 1088 R90
WINDOW 0 7 56 VBottom 2
WINDOW 3 25 56 VTop 2
SYMATTR InstName R18
SYMATTR Value 1k
SYMBOL source-I 592 864 R180
WINDOW 0 29 73 Left 2
WINDOW 3 -175 -58 Left 2
WINDOW 123 0 0 Left 2
WINDOW 39 0 0 Left 2
SYMATTR InstName I2
SYMATTR Value PULSE(0 500m 200u)
SYMBOL crtl-V-V -112 768 R0
SYMATTR InstName E1
SYMATTR Value 0.5
SYMBOL source-V -112 864 R0
SYMATTR InstName V4
SYMATTR Value -1
SYMBOL source-V 64 864 R0
SYMATTR InstName V5
SYMATTR Value -0.4
SYMBOL crtl-V-V 64 768 R0
SYMATTR InstName E2
SYMATTR Value 5.4
SYMBOL res -320 160 R0
SYMATTR InstName R13
SYMATTR Value 10k
SYMBOL res -304 304 M270
WINDOW 0 25 56 VTop 2
WINDOW 3 7 56 VBottom 2
SYMATTR InstName R14
SYMATTR Value 10k
SYMBOL MDB_sym\\source-Vmarker 48 -32 R0
SYMATTR InstName U4
SYMBOL MDB_sym\\isoR 192 160 R0
SYMATTR InstName R2
SYMBOL MDB_sym\\isoR 400 160 R0
SYMATTR InstName R4
TEXT -128 -232 Left 2 !.model swx SW(Ron=.1m Roff=1Meg Vt=1.25 Vh=-.5)\n .model dx D(Ron=.1m Roff=1Meg Vfwd=.4)\n.tran 0 400u 0 1u uic
TEXT 304 -48 Left 2 ;RL=11,33Ohm für IAmin=291mA
TEXT -136 -120 Left 2 !; .param p=0.6852 T=10u   ; kontinuierlich\n.param p=0.4015 T=10u     ; Lückbetrieb bei IA=100mA
TEXT -472 240 Right 2 ;.step param kr list 1 2 3 4 5 10
TEXT 344 728 Left 2 ;.ic v(a)=3.3
TEXT 296 16 Left 2 !.ic V(Ca) = 3.3
TEXT 304 312 Left 2 !.param RLoad = 8R
TEXT -208 280 Left 2 !.param Kr = 1
