Version 4
SHEET 1 1376 1288
WIRE 1008 -800 992 -800
WIRE 1104 -800 1088 -800
WIRE 1056 -736 976 -736
WIRE 32 -560 16 -560
WIRE 272 -560 272 -608
WIRE 304 -560 272 -560
WIRE 320 -560 304 -560
WIRE 480 -560 400 -560
WIRE 560 -560 480 -560
WIRE 688 -560 656 -560
WIRE 912 -560 768 -560
WIRE 1040 -560 912 -560
WIRE 272 -544 272 -560
WIRE 912 -544 912 -560
WIRE 480 -528 480 -560
WIRE 112 -496 80 -496
WIRE 480 -400 480 -464
WIRE 912 -400 912 -464
WIRE 1040 -288 1040 -304
WIRE 1120 -288 1120 -320
WIRE 608 -240 560 -240
WIRE 656 -240 608 -240
WIRE 608 -224 608 -240
WIRE 176 -192 144 -192
WIRE 272 -192 256 -192
WIRE 288 -192 272 -192
WIRE 448 -192 368 -192
WIRE 496 -144 496 -176
WIRE 528 -144 496 -144
WIRE 272 -128 272 -192
WIRE 304 -128 272 -128
WIRE 608 -128 608 -144
WIRE 608 -128 592 -128
WIRE 688 -128 608 -128
WIRE 720 -128 688 -128
WIRE 784 -128 768 -128
WIRE 448 -112 448 -192
WIRE 448 -112 368 -112
WIRE 480 -112 448 -112
WIRE 528 -112 480 -112
WIRE 304 -96 272 -96
FLAG 480 -400 0
FLAG 912 -400 0
FLAG 912 -560 y
FLAG 384 -496 0
FLAG 0 -496 0
FLAG 560 -96 0
FLAG 496 -176 saw
IOPIN 496 -176 In
FLAG 480 -112 Cs
FLAG 688 -128 pwm
FLAG 272 -96 soll
IOPIN 272 -96 In
FLAG 992 -800 0
FLAG 1104 -800 saw
IOPIN 1104 -800 Out
FLAG 304 -560 V+
FLAG -64 -560 0
FLAG 1056 -736 soll
IOPIN 1056 -736 Out
FLAG 1040 -288 0
FLAG 1120 -288 0
FLAG 608 -240 V+
SYMBOL ind 672 -544 R270
WINDOW 0 30 56 VTop 2
WINDOW 3 6 56 VBottom 2
SYMATTR InstName L1
SYMATTR Value 100µ
SYMBOL schottky 496 -464 R180
WINDOW 0 24 72 Left 2
WINDOW 3 24 0 Left 2
SYMATTR InstName D1
SYMATTR Value MBR0540
SYMATTR Description Diode
SYMATTR Type diode
SYMBOL res 896 -560 R0
SYMATTR InstName RL
SYMATTR Value 33
SYMBOL crtl-V-S 304 -560 R270
WINDOW 0 -19 -8 VRight 2
WINDOW 3 27 37 VRight 2
SYMATTR InstName S1
SYMATTR Value swx
SYMBOL source-V 96 -496 R90
WINDOW 0 29 -2 VRight 2
WINDOW 3 57 -88 Invisible 2
SYMATTR InstName V2
SYMATTR Value PULSE(0 2.5 0 1p 1p {pw*T} {T})
SYMBOL EIT_Semiconductors\\comp_oc 560 -128 R0
WINDOW 0 1 -28 Left 2
WINDOW 3 9 26 Invisible 2
WINDOW 38 -43 62 Left 2
SYMATTR InstName U6
SYMBOL EIT_Semiconductors\\op_3 336 -112 R0
WINDOW 0 -5 34 Left 2
WINDOW 123 -17 69 Invisible 2
WINDOW 3 -16 43 Invisible 2
SYMATTR InstName U7
SYMATTR Value Vp={Vcc*.98} Vm={Vee*.98} Ilim=20m
SYMBOL res 272 -176 R270
WINDOW 0 25 56 VTop 2
WINDOW 3 7 56 VBottom 2
SYMATTR InstName R4
SYMATTR Value {R2}
SYMBOL res 160 -176 R270
WINDOW 0 25 56 VTop 2
WINDOW 3 7 56 VBottom 2
SYMATTR InstName R5
SYMATTR Value {R1}
SYMBOL voltage 1104 -800 R90
WINDOW 0 -32 56 VBottom 2
WINDOW 3 32 56 Invisible 2
SYMATTR InstName V4
SYMATTR Value PULSE({lSaw} {uSaw} 0 {T} 1n 1n {T+2n})
SYMBOL MDB_sym\\source-Vmarker 272 -608 R90
SYMATTR Value V=20V
SYMATTR InstName U1
SYMBOL source-V 32 -560 R90
WINDOW 123 0 0 Left 2
WINDOW 39 0 0 Left 2
WINDOW 0 -22 -8 VRight 2
WINDOW 3 -47 -25 VRight 2
SYMATTR InstName V1
SYMATTR Value SINE(0 1 1meg)
SYMBOL MDB_sym\\jumper 752 -192 R0
SYMATTR InstName X1
SYMBOL MDB_sym\\source-Vmarker 976 -736 R0
SYMATTR Value V=2V
SYMATTR InstName U2
SYMBOL crtl-V-V 1040 -288 R180
SYMATTR InstName E1
SYMATTR Value 1
SYMBOL res 592 -240 R0
SYMATTR InstName R1
SYMATTR Value 47k
TEXT 544 -1016 Left 2 !.param Buck = 1\n+ Ca = 47uF\n+ Ia = 1.5A\n+ L1 = 20uH\n+ Rs = 0.1\n+ uSaw = 10V\n+ lSaw = -10V\n+ Vd0 = .5V\n \n+ Vin = 20V\n+ Vline = 3V
TEXT 536 -680 Left 2 !.tran 20m startup
TEXT 888 -1024 Left 2 !.param opamp=1\n+ Vcc = 10V\n+ Vee = -10V
TEXT 728 -1024 Left 2 !.param ctrl=1\n+ Vsoll = 5.5V\n+ kp = 15\n+ ki = 0.01\n \n+ pw = {t1/T}\n+ t1 = 0.75*T\n+ T = 15us \n+ t2 = T;\n \n+ R1 = 4k7\n+ R2 = {R1*kp}\n+ Cc = 1/(ki*R1)\n \n+Csaw = 1n
TEXT -72 -888 Left 2 !.model swx SW(Ron=.1m Roff=1Meg Vt=1.25 Vh=-.5)\n.model dx D(Ron=.1m Roff=1Meg Vfwd=.4)
TEXT -72 -832 Left 2 ;RL=11,33Ohm für IAmin=291mA
TEXT 176 -776 Center 2 ;_Buckconverter\n_........................\nhttp://www.ti.com.cn/cn/lit/ds/symlink/tps40077.pdf
