Version 4
SHEET 1 1476 772
WIRE -240 -224 -272 -224
WIRE -288 -32 -336 -32
WIRE -160 -32 -240 -32
WIRE -144 -32 -160 -32
WIRE 336 -32 -64 -32
WIRE -304 32 -320 32
WIRE -272 32 -272 -16
WIRE -272 32 -304 32
WIRE -160 32 -160 -32
WIRE 336 144 336 -32
WIRE -160 176 -160 96
WIRE 336 224 336 208
WIRE -112 288 -128 288
WIRE -128 304 -128 288
WIRE 336 400 336 224
WIRE 336 400 0 400
WIRE -272 416 -272 32
WIRE -128 416 -128 384
WIRE -128 416 -272 416
WIRE -64 416 -128 416
WIRE 336 416 336 400
WIRE 16 432 0 432
WIRE -128 512 -128 416
WIRE -80 512 -128 512
WIRE 16 512 16 432
WIRE 16 512 0 512
WIRE 32 512 16 512
WIRE 144 512 112 512
WIRE 240 512 224 512
WIRE 336 512 336 496
FLAG -160 176 0
FLAG -336 -32 Ve
FLAG -304 32 fet
FLAG -160 -32 s
FLAG -32 448 0
FLAG 336 512 0
FLAG 240 512 0
FLAG -240 -224 Ve
SYMBOL ind -160 -16 R270
WINDOW 0 30 56 VTop 2
WINDOW 3 6 56 VBottom 2
SYMATTR InstName L1
SYMATTR Value {L1}
SYMATTR SpiceLine Rser=1n
SYMBOL MDB_sym\\swMDBsingle -256 -16 M270
WINDOW 0 36 20 VRight 2
SYMATTR InstName U1
SYMBOL diode -144 96 R180
WINDOW 0 24 64 Left 2
WINDOW 3 24 0 Left 2
SYMATTR InstName D1
SYMATTR Value Dx
SYMBOL EIT_Semiconductors\\comp_oc -32 416 M0
WINDOW 3 55 30 Invisible 2
SYMATTR InstName U3
SYMBOL res -96 496 M90
WINDOW 0 7 56 VBottom 2
WINDOW 3 25 56 VTop 2
SYMATTR InstName Rf
SYMATTR Value {Rf+1m}
SYMBOL res 16 496 M90
WINDOW 0 7 56 VBottom 2
WINDOW 3 25 56 VTop 2
SYMATTR InstName R1
SYMATTR Value {R1}
SYMBOL MDB_sym\\source-Vmarker -112 288 M0
SYMATTR Value V={VcomOut}
SYMATTR InstName U4
SYMBOL res -112 288 M0
SYMATTR InstName R3
SYMATTR Value 47k
SYMBOL source-V 128 512 M90
WINDOW 3 -45 81 VLeft 2
WINDOW 123 0 0 Left 2
WINDOW 39 0 0 Left 2
WINDOW 0 47 65 VLeft 2
SYMATTR Value {Vref}
SYMATTR InstName V2
SYMBOL res 320 400 R0
SYMATTR InstName RM
SYMATTR Value {RM}
SYMBOL MDB_sym\\source-Vmarker -272 -224 R0
SYMATTR Value V={Ve}
SYMATTR InstName U2
SYMBOL MDB_sym\\source-V 336 128 R0
WINDOW 123 0 0 Left 2
WINDOW 39 0 0 Left 2
SYMATTR InstName V1
SYMATTR Value 5V
TEXT 216 -80 Left 2 ;.ic V(ca)=0.01
TEXT -160 -120 Left 2 !.ic I(L1) = 0
TEXT 616 -304 Left 2 !.param Buck = 1\n+ L1 = 108u\n+ RM = .2\n+ Vref = 0.1V\n+ Ca = 220u\n+ Vd0 = .4V\n+ Ve = 14V\n+ Va = {Vbatt}\n+ Vbatt = 5V\n+ Iamin = 286mA\n+ N = 400\n+ R1 = 10K\n+ Rf = {R1*(VcomOut -Vhy)/Vhy}\n+ Vhy = 0.1\n+ VcomOut = 1V
TEXT -376 578 Left 2 !.tran 200u
TEXT 640 120 Left 2 !; ---------------------------------------------------\n; Model defines\n; ---------------------------------------------------\n.model swL SW(Ron=1m Roff=100Meg Vt=0 Vh=-.5 )\n.model swT SW(Ron=1m Roff=100meg Vt=0 Vh=-.5 )\n.model Dx D (Vfwd = {VD0} Ron = .01 Roff 10meg)
