Version 4
SHEET 1 1368 1036
WIRE -816 -416 -832 -416
WIRE -800 -416 -816 -416
WIRE -832 -384 -832 -416
WIRE -912 -368 -928 -368
WIRE -896 -368 -912 -368
WIRE -928 -336 -928 -368
WIRE -1008 -304 -1024 -304
WIRE -992 -304 -1008 -304
WIRE -832 -288 -832 -304
WIRE -1024 -272 -1024 -304
WIRE -928 -240 -928 -256
WIRE -1024 -176 -1024 -192
WIRE -112 -112 -144 -112
WIRE -16 -112 -48 -112
WIRE -128 -32 -144 -32
WIRE -16 -32 -16 -112
WIRE -16 -32 -48 -32
WIRE 16 -32 -16 -32
WIRE 32 -32 16 -32
WIRE 128 -32 96 -32
WIRE 176 -32 128 -32
WIRE 256 -32 208 -32
WIRE 304 -32 256 -32
WIRE 128 -16 128 -32
WIRE 256 16 256 -32
WIRE -16 32 -16 -32
WIRE -80 48 -96 48
WIRE -64 48 -80 48
WIRE 128 80 128 64
WIRE 128 80 96 80
WIRE -64 96 -80 96
WIRE -16 144 -16 112
WIRE 128 160 128 144
WIRE 256 160 256 96
WIRE -224 224 -240 224
WIRE -208 224 -224 224
WIRE -224 256 -240 256
WIRE -208 256 -224 256
WIRE -224 288 -240 288
WIRE -208 288 -224 288
WIRE -144 784 -176 784
WIRE -112 784 -144 784
WIRE -176 800 -176 784
WIRE -256 832 -288 832
WIRE -224 832 -256 832
WIRE -288 848 -288 832
WIRE -176 896 -176 880
WIRE -288 944 -288 928
FLAG -80 96 0
FLAG -16 144 Ve
FLAG 128 160 0
FLAG -80 48 fet
FLAG 16 -32 s
FLAG 256 -32 A
FLAG 256 160 0
FLAG 96 80 ca
FLAG -224 288 Ve
FLAG -176 896 0
FLAG -288 944 0
FLAG -256 832 fet
FLAG -144 784 load
FLAG -224 256 gnd2
FLAG -1024 -176 0
FLAG -1008 -304 fetA
FLAG -928 -240 0
FLAG -912 -368 fetB
FLAG -832 -288 0
FLAG -816 -416 fet33
FLAG -144 -32 0
FLAG -144 -112 0
FLAG -224 224 pw
SYMBOL diode 32 -16 R270
WINDOW 0 32 32 VTop 2
WINDOW 3 0 32 VBottom 2
SYMATTR InstName D1
SYMATTR Value Dx
SYMBOL sw -16 128 M180
WINDOW 0 39 58 Left 2
WINDOW 3 39 83 Left 2
SYMATTR InstName S1
SYMATTR Value swT
SYMBOL ind -144 -16 R270
WINDOW 0 30 56 VTop 2
WINDOW 3 6 56 VBottom 2
SYMATTR InstName L1
SYMATTR Value {L}
SYMATTR SpiceLine Rser=1n
SYMBOL cap 112 80 R0
SYMATTR InstName Ca
SYMATTR Value {CA}
SYMBOL source-I 256 96 R180
WINDOW 0 29 73 Left 2
WINDOW 3 29 17 Left 2
WINDOW 123 0 0 Left 2
WINDOW 39 0 0 Left 2
SYMATTR InstName I1
SYMATTR Value {Ia}
SYMBOL res 112 -32 R0
SYMATTR InstName R1
SYMATTR Value .0001m
SYMBOL source-Vmarker -240 288 R0
SYMATTR Value V={Ve}
SYMATTR InstName U2
SYMBOL source-V -176 784 R0
WINDOW 3 -14 145 Left 2
WINDOW 123 0 0 Left 2
WINDOW 39 0 0 Left 2
SYMATTR Value PULSE(-1.1 1.1 {T_load})
SYMATTR InstName V1
SYMBOL source-V -288 832 R0
WINDOW 3 -14 145 Left 2
WINDOW 123 0 0 Left 2
WINDOW 39 0 0 Left 2
SYMATTR Value PULSE(-1 1 0 1n 1n {pw/fs} {1/fs})
SYMATTR InstName V2
SYMBOL source-Vmarker -240 256 R0
SYMATTR Value V=1u
SYMATTR InstName U1
SYMBOL bv -1024 -288 R0
SYMATTR InstName B1
SYMATTR Value V=if( I(L1)-.5, 1, -1 )
SYMBOL bv -928 -352 R0
SYMATTR InstName B2
SYMATTR Value V=buf( V(a) )
SYMBOL bv -832 -400 R0
SYMATTR InstName B3
SYMATTR Value V=V(fetA) * V(fetB)
SYMBOL source-Vmarker -240 224 R0
SYMATTR Value V={pw}
SYMATTR InstName U3
SYMBOL cap -48 -128 R90
WINDOW 0 0 32 VBottom 2
WINDOW 3 32 32 VTop 2
WINDOW 39 -29 34 VBottom 2
SYMATTR InstName C1
SYMATTR Value {Cpar}
SYMATTR SpiceLine Rser=1
SYMBOL MDB_sym\\arrow_curr 192 -32 R270
WINDOW 0 4 0 VTop 2
SYMATTR InstName Ia
TEXT -312 344 Left 2 !.param Ts = 8us\n+ fs = {1/Ts}\n+ T_load = 35m\n+ Ve = -9V\n+ Ia = {.15+0*.05}\n+ Va = 4V\n+ Vd0 = 0.5\n+ pwc = (Vd0+Va)/(Vd0+Va-Ve)\n+ pw=.25
TEXT 80 296 Left 2 !.param dyn=1\n+ CA = 20u\n+ L =  30u\n+ Cpar = 211p\n+ RL = 22
TEXT 88 512 Left 2 !.tran 0 2m {1*(2m-3*Ts)} 10n startup
TEXT -1064 -72 Left 2 !; ---------------------------------------------------\n; Averages\n; ---------------------------------------------------\n.MEAS Tran ILavg AVG I(L1)\n.MEAS Tran ILrms RMS I(L1)\n; ---------------------------------------------------\n; Tastverhältniss\n; ---------------------------------------------------\n.MEAS TRAN t0 FIND time*1e6 WHEN I(L1)=I(I1) cross=1 TD=1u\n.MEAS TRAN t1 FIND time*1e6 WHEN I(L1)=I(I1) cross=2 TD=1u\n.MEAS TRAN t2 FIND time*1e6 WHEN I(L1)=I(I1) cross=3 TD=1u\n.MEAS TRAN trise FIND time WHEN I(L1)=I(I1) rise=1 TD=1u\n.MEAS TRAN tfall FIND time WHEN I(L1)=I(I1) fall=1 TD=1u\n \n.MEAS TRAN T PARAM round(t2-t0)\n.MEAS TRAN ton PARAM round(t1-t0)\n \n; ---------------------------------------------------\n; Rippelspannung berechnen\n; ---------------------------------------------------\n.MEAS TRAN area_ICa INTEG I(CA)\n+ TRIG I(CA)=0 RISE=1\n+ TARG I(CA)=0 FALL=1\n \n.MEAS TRAN vrip PARAM area_ICa/CA\n \n; ---------------------------------------------------\n; Rippelspannung direkt messen\n; ---------------------------------------------------\n.MEAS TRAN vpp pp V(A) \n+ TRIG time=0\n+ TARG time=300u\n \n; ---------------------------------------------------\n; ESR\n; ---------------------------------------------------\n.MEAS TRAN ILmax MAX I(L1) TD=10u\n.MEAS TRAN ILmin MIN I(L1) TD=10u\n.MEAS TRAN p1 FIND V(a,ca) WHEN I(L1)=ILmin fall=last\n.MEAS TRAN p2 FIND V(a,ca) WHEN I(L1)=ILmax rise=last\n.MEAS TRAN dVa PARAM abs(p2-p1)\n.MEAS TRAN dIL PARAM abs(ILmax-ILmin)\n.MEAS TRAN Rser PARAM dVa/dIL
TEXT 480 712 Left 1 ;.model swL SW(Ron=1m Roff=100Meg Vt=0 Vh=-.5 )\n.model swT SW(Ron=1m Roff=100meg Vt=0 Vh=-.5 )\n;.model Dx D ( Is={I0/exp(0.7/26m)} Rs = 0.1 Cjo = 0p)\n;.model nmosx nmos (Kp={2*K} VT0=2.5)
TEXT 480 24 Left 2 ;Spulen-Energie \nEL = 0.5*L1*IL^2\n \nVerlauf des Spulenstromes\n-------------------------------------------\nIL_on = -Ve/L1*t+IL01    für 0<t<t1\nIL_off = -(Va+Vd0)/L1*(t2 - t1)+IL02    für t1<t<t2\n \nWenn eine stationäre Va gefordert ist,\nmuss mittlerer Kondensatorstrom _IL=0A\ngelten da sich Va sonst ändern würde\n \nTastverhältniss p (kontinuierlich)\n---------------------------\n--> t2 = T\np = t1/T  \nTastverhältniss p ergibt sich aus der \non-zeit t1 und der Periodendauer T\n \nd_IL_on = -Ve/L1*t1 = 9V/20uH*t1\nd_IL_off = -(Va+VD0)/L1*(T-t1)    für t1<t<T\n \nWegen Vca=const. muss gelten:\n|d_IL_on| = |d_IL_off|\n \np = t1/T = (Va+VD0)/(Ve+VD0)\nVa = t1/T*(Ve+VD0)
TEXT -320 616 Left 2 !.model swL SW(Ron=1m Roff=100Meg Vt=0 Vh=-.5 )\n.model swT SW(Ron=1m Roff=100meg Vt=0 Vh=-.5 )\n.model Dx D (Vfwd = {VD0} Ron = 1m Roff 100meg)\n.options plotwinsize=0
TEXT 480 816 Left 2 ;.MEAS TRAN dtVa TIME\n+ TRIG MIN I(L1) cross=1\n+ TARG MAX I(L1) cross=1
TEXT -736 -136 Left 2 ;;;.spice error log command
TEXT 96 -144 Left 2 !.ic V(a) =4.5V
TEXT -96 -344 Left 2 ;.step param Ia .1 .25 .05
TEXT 448 -248 Left 2 !.op
