Version 4
SHEET 1 1628 932
WIRE -480 -432 -480 -448
WIRE -688 -336 -720 -336
WIRE -480 -336 -480 -368
WIRE -480 -336 -512 -336
WIRE -432 -336 -480 -336
WIRE -176 -272 -192 -272
WIRE -144 -272 -176 -272
WIRE -176 -256 -176 -272
WIRE -416 -224 -432 -224
WIRE -384 -224 -416 -224
WIRE -416 -208 -416 -224
WIRE -688 -48 -752 -48
WIRE -528 -48 -560 -48
WIRE -752 -32 -752 -48
WIRE -752 48 -752 32
WIRE -384 160 -416 160
WIRE -384 208 -384 160
WIRE -352 208 -384 208
WIRE -144 224 -288 224
WIRE -688 240 -720 240
WIRE -528 240 -592 240
WIRE -432 240 -528 240
WIRE -352 240 -432 240
WIRE -432 352 -432 240
WIRE -432 352 -464 352
WIRE -688 704 -720 704
WIRE -528 704 -560 704
WIRE -688 800 -720 800
WIRE -528 800 -560 800
FLAG -416 -128 0
FLAG -384 -224 saw
IOPIN -384 -224 Out
FLAG -688 -48 BP
IOPIN -688 -48 In
FLAG -688 240 COMP
IOPIN -688 240 In
FLAG -688 704 FB
IOPIN -688 704 In
FLAG -688 800 BP
IOPIN -688 800 In
FLAG -528 -48 BP
FLAG -528 240 COMP
FLAG -528 704 FB
FLAG -528 800 BP
FLAG -176 -176 0
FLAG -144 -272 clk
IOPIN -144 -272 Out
FLAG -688 -336 EN_SS
IOPIN -688 -336 In
FLAG -512 -336 EN_SS
FLAG -480 -448 0
FLAG -416 160 saw
IOPIN -416 160 In
FLAG -752 48 0
SYMBOL source-V -416 -224 R0
WINDOW 3 -172 127 Left 2
WINDOW 123 0 0 Left 2
WINDOW 39 0 0 Left 2
WINDOW 0 -50 27 Left 2
SYMATTR Value PULSE(0 {Vsu} 0 {Ts-1n} 1n 0 {Ts})
SYMATTR InstName V2
SYMBOL MDB_sym\\isoR0 -448 -224 R90
WINDOW 0 9 10 Invisible 2
SYMATTR InstName U9
SYMBOL source-V -176 -272 R0
WINDOW 3 -172 127 Left 2
WINDOW 123 0 0 Left 2
WINDOW 39 0 0 Left 2
WINDOW 0 -50 27 Left 2
SYMATTR Value PULSE(0 {Vcl} 0 1n 1n {p*Ts} {Ts})
SYMATTR InstName V1
SYMBOL MDB_sym\\isoR0 -208 -272 R90
WINDOW 0 9 10 Invisible 2
SYMATTR InstName U1
SYMBOL EIT_Semiconductors\\op_3 -496 352 R0
WINDOW 123 -17 69 Invisible 2
WINDOW 3 -16 43 Invisible 2
SYMATTR InstName U2
SYMATTR Value Vp={V1} Vm={-V1} Ilim=20m
SYMBOL MDB_sym\\source-Imini -480 -400 R0
WINDOW 39 0 0 Left 2
SYMATTR Value 10µ
SYMATTR InstName I1
SYMATTR Value2 ""
SYMBOL MDB_sym\\GainMDB -400 -336 R0
WINDOW 3 4 -3 Center 2
SYMATTR InstName U4
SYMBOL EIT_Semiconductors\\op_3 -320 224 R0
WINDOW 123 -17 69 Invisible 2
WINDOW 3 -16 43 Invisible 2
SYMATTR InstName U3
SYMATTR Value Vp={V1} Vm={-V1} Ilim=20m
SYMBOL cap -768 -32 R0
SYMATTR InstName C1
SYMATTR Value 1µ
TEXT 248 -760 Left 2 ;_Buckconverter\n_ti_datasheet   _:SLUSAH4D - MARCH 2011 - REVISED FEBRUARY 2016 page 10
TEXT 256 -680 Left 2 !.tran 0 {N*T} {(N-2)*T}
TEXT 256 -648 Left 2 ;.option noopiter
TEXT 256 -624 Left 2 !.op
TEXT -104 -744 Left 2 !.param TPS56x20 = 1\n+ Vsu = 5V  ;  Vmax of the periodic saw\n+ fs = 500kHz  ;  switching freq\n+ Ts = {1/fs}\n+ p = 0.25\n+ V1 = 10V  ;  OpAmp Supply
RECTANGLE Normal 1424 928 -688 -584 2
