Version 4
SHEET 1 2240 1604
WIRE 192 -512 160 -512
WIRE 224 -512 192 -512
WIRE 160 -496 160 -512
WIRE 80 -464 48 -464
WIRE 112 -464 80 -464
WIRE 48 -448 48 -464
WIRE 160 -400 160 -416
WIRE 48 -352 48 -368
WIRE 112 -144 80 -144
WIRE 144 -144 112 -144
WIRE 288 -144 224 -144
WIRE 336 -144 288 -144
WIRE 448 -144 416 -144
WIRE 496 -144 448 -144
WIRE 576 -144 544 -144
WIRE 448 -128 448 -144
WIRE 576 -128 576 -144
WIRE 288 -96 288 -144
WIRE 160 -80 160 -96
WIRE 448 -32 448 -48
WIRE 448 -32 432 -32
WIRE 576 -32 576 -48
WIRE 176 -16 160 -16
WIRE 208 -16 208 -96
WIRE 208 -16 176 -16
WIRE 448 -16 448 -32
WIRE 288 0 288 -32
WIRE 448 64 448 48
FLAG 160 -80 0
FLAG 288 0 0
FLAG 112 -144 Ve
FLAG 448 64 0
FLAG 176 -16 fet
FLAG 160 -400 0
FLAG 48 -352 0
FLAG 80 -464 fet
FLAG 192 -512 load
FLAG 288 -144 s
FLAG 448 -144 A
FLAG 576 -32 0
FLAG 432 -32 ca
SYMBOL source-Vmarker 80 -144 R0
SYMATTR Value V={Ve}
SYMATTR InstName U1
SYMBOL diode 304 -32 R180
WINDOW 0 -20 69 Left 2
WINDOW 3 7 -5 Right 2
SYMATTR InstName D1
SYMATTR Value Dx
SYMBOL sw 128 -144 R270
WINDOW 0 -39 86 VRight 2
WINDOW 3 -37 -20 VRight 2
SYMATTR InstName S1
SYMATTR Value swT
SYMBOL ind 320 -128 R270
WINDOW 0 30 56 VTop 2
WINDOW 3 6 56 VBottom 2
SYMATTR InstName L1
SYMATTR Value {L}
SYMATTR SpiceLine Rser=1n
SYMBOL cap 432 -16 R0
SYMATTR InstName Ca
SYMATTR Value {CA}
SYMBOL source-V 160 -512 R0
WINDOW 3 -14 145 Left 2
WINDOW 123 0 0 Left 2
WINDOW 39 0 0 Left 2
SYMATTR Value PULSE(-1.1 1.1 {T_load})
SYMATTR InstName V1
SYMBOL source-V 48 -464 R0
WINDOW 3 -14 145 Left 2
WINDOW 123 0 0 Left 2
WINDOW 39 0 0 Left 2
SYMATTR Value PULSE(-1 1 0 100n 100n {PW/fs} {1/fs})
SYMATTR InstName V2
SYMBOL source-I 576 -48 M180
WINDOW 0 29 73 Left 2
WINDOW 3 29 17 Left 2
WINDOW 123 0 0 Left 2
WINDOW 39 0 0 Left 2
SYMATTR InstName I1
SYMATTR Value {Ia}
SYMBOL res 432 -144 R0
SYMATTR InstName Rser
SYMATTR Value 1µ
SYMBOL MDB_sym\\jumper 528 -208 R0
WINDOW 0 -7 50 Invisible 2
SYMATTR InstName X1
TEXT 848 464 Left 2 !.param T = 10us \n+ pw = 0.5\n+ Ia = 2A\n+ CA = 47uF\n+ Vd0 = .5V\n+ fs = 1/T\n+ T_load = 0\n+ Ve = 10V\n+ L = 20uH\n+ RL = 22
TEXT 496 -600 Left 2 !.tran 0 20m {20m-4*T} \n.op
TEXT 840 -368 Left 2 ;Spulen-Energie \nEL = 0.5*L1*IL^2\n \nVerlauf des Spulenstromes\n-------------------------------------------\nIL_on = (Ve-Vca)/L1*t+IL0\nIL_off = -(Vca+VD0)/L1*t+IL0-2\n \nWenn eine stationäre Vca gefordert ist,\nmuss mittlerer Kondensatorstrom _IL=0A\ngelten da sich die Vca sonst ändern würde\n \nTastverhältniss p\n---------------------------\np = t1/T  \nTastverhältniss p ergibt sich aus der \non-zeit t1 und der Periodendauer T\n \nd_IL_on = (Ve-Va)/L1*t   für 0<t<t1\nd_IL_off = -(Va+VD0)/L1*(T-t1)    für t1<t<T\n \nWegen Vca=const. muss gelten:\n|d_IL_on| = |d_IL_off|\n \np = t1/T = (Va+VD0)/(Ve+VD0)\nVa = t1/T*(Ve+VD0)\n \n.MEAS TRAN dtVa TIME\n+ TRIG MIN I(L1) cross=1\n+ TARG MAX I(L1) cross=1
TEXT 1400 -408 Left 2 !; ---------------------------------------------------\n; Tastverhältniss\n; ---------------------------------------------------\n.MEAS TRAN t0 FIND time*1e6 WHEN I(L1)=I(I1) cross=1 TD=1u\n.MEAS TRAN t1 FIND time*1e6 WHEN I(L1)=I(I1) cross=2 TD=1u\n.MEAS TRAN t2 FIND time*1e6 WHEN I(L1)=I(I1) cross=3 TD=1u\n.MEAS TRAN trise FIND time WHEN I(L1)=I(I1) rise=1 TD=1u\n.MEAS TRAN tfall FIND time WHEN I(L1)=I(I1) fall=1 TD=1u\n \n.MEAS TRAN T PARAM round(t2-t0)\n.MEAS TRAN ton PARAM round(t1-t0)\n \n; ---------------------------------------------------\n; Rippelspannung berechnen\n; ---------------------------------------------------\n.MEAS TRAN area_ICa INTEG I(CA)\n+ TRIG I(CA)=0 RISE=1\n+ TARG I(CA)=0 FALL=1\n \n.MEAS TRAN vrip PARAM area_ICa/CA\n \n; ---------------------------------------------------\n; Rippelspannung direkt messen\n; ---------------------------------------------------\n.MEAS TRAN vpp pp V(A) \n+ TRIG time=0\n+ TARG time=300u\n \n; ---------------------------------------------------\n; ESR\n; ---------------------------------------------------\n.MEAS TRAN ILmax MAX I(L1) TD=10u\n.MEAS TRAN ILmin MIN I(L1) TD=10u\n.MEAS TRAN p1 FIND V(a,ca) WHEN I(L1)=ILmin fall=last\n.MEAS TRAN p2 FIND V(a,ca) WHEN I(L1)=ILmax rise=last\n.MEAS TRAN dVa PARAM abs(p2-p1)\n.MEAS TRAN dIL PARAM abs(ILmax-ILmin)\n.MEAS TRAN Rser PARAM dVa/dIL\n \n; ---------------------------------------------------\n; Model defines\n; ---------------------------------------------------\n.model swL SW(Ron=1m Roff=100Meg Vt=0 Vh=-.5 )\n.model swT SW(Ron=1m Roff=100meg Vt=0 Vh=-.5 )\n.model Dx D (Vfwd = {VD0} Ron = 1m Roff 100meg)
TEXT 336 224 Left 2 ;_Buckconverter\n_........................
