Version 4
SHEET 1 1060 964
WIRE 272 -944 240 -944
WIRE 304 -944 272 -944
WIRE 240 -928 240 -944
WIRE 240 -832 240 -848
WIRE 272 -768 208 -768
WIRE 304 -768 272 -768
WIRE 896 -752 784 -752
WIRE 208 -736 208 -768
WIRE 896 -736 896 -752
WIRE 704 -720 704 -768
WIRE 784 -720 784 -752
WIRE 896 -656 896 -672
WIRE 944 -656 896 -656
WIRE 1040 -656 1008 -656
WIRE 208 -624 208 -656
WIRE 784 -608 784 -640
WIRE 896 -608 896 -656
WIRE 704 -560 704 -640
WIRE 688 -528 624 -528
WIRE 624 -512 624 -528
WIRE 704 -496 704 -512
WIRE 896 -496 896 -528
WIRE 944 -496 896 -496
WIRE 960 -496 944 -496
WIRE 896 -464 896 -496
WIRE 624 -416 624 -432
WIRE 704 -384 704 -416
WIRE 896 -368 896 -400
WIRE 128 -112 -304 -112
WIRE 592 -112 128 -112
WIRE -304 -48 -304 -112
WIRE 240 -16 192 -16
WIRE 272 -16 240 -16
WIRE 464 -16 352 -16
WIRE 592 -16 592 -112
WIRE 592 -16 528 -16
WIRE 640 -16 592 -16
WIRE 752 -16 688 -16
WIRE 240 16 240 -16
WIRE 592 32 592 -16
WIRE 752 32 752 -16
WIRE -304 48 -304 32
WIRE -272 48 -304 48
WIRE -176 48 -192 48
WIRE -160 48 -176 48
WIRE -64 48 -80 48
WIRE 32 48 0 48
WIRE -304 96 -304 48
WIRE 112 112 80 112
WIRE -176 128 -176 48
WIRE -64 128 -176 128
WIRE 32 144 32 48
WIRE 32 144 0 144
WIRE 112 144 32 144
WIRE -64 160 -96 160
WIRE -192 176 -208 176
WIRE -160 176 -192 176
WIRE 592 176 592 96
WIRE 752 176 752 112
WIRE -304 208 -304 176
WIRE -208 208 -208 176
WIRE 64 208 32 208
WIRE 96 208 64 208
WIRE 32 224 32 208
WIRE 48 288 48 272
WIRE -208 304 -208 288
WIRE 32 320 32 304
WIRE 544 512 112 512
WIRE 560 512 544 512
WIRE 720 512 560 512
WIRE 560 544 560 512
WIRE 720 544 720 512
WIRE 112 608 112 512
WIRE 128 608 112 608
WIRE 224 608 208 608
WIRE 240 608 224 608
WIRE 320 608 320 560
WIRE 336 608 320 608
WIRE 432 608 432 560
WIRE 432 608 400 608
WIRE 720 624 720 592
WIRE 560 640 560 592
WIRE 640 640 560 640
WIRE 224 688 224 608
WIRE 336 688 224 688
WIRE 560 688 560 640
WIRE 432 704 432 608
WIRE 432 704 400 704
WIRE 464 704 432 704
WIRE 480 704 464 704
WIRE 336 720 304 720
WIRE 720 720 720 704
WIRE 560 784 560 768
WIRE 256 944 192 944
FLAG 592 176 0
FLAG 752 176 0
FLAG 144 160 0
FLAG 80 112 saw
FLAG 64 208 saw
FLAG 752 -16 out
FLAG -304 208 0
FLAG 128 -112 fb
FLAG 240 -16 Ve
FLAG 32 320 0
FLAG 480 752 0
FLAG 560 784 0
FLAG 464 704 x
FLAG 544 512 y
FLAG 304 720 Vref
FLAG -208 304 0
FLAG -192 176 Vref
FLAG 640 688 0
FLAG 720 720 0
FLAG -96 160 Vref
FLAG 784 -608 0
FLAG 896 -368 0
FLAG 1040 -656 0
FLAG 944 -496 out3
FLAG 704 -384 0
FLAG 624 -416 0
FLAG 272 -944 saw2
FLAG 240 -832 0
FLAG 272 -768 pwCtrl
FLAG 48 288 0
FLAG 208 -624 0
SYMBOL MDB_sym\\source-Vmarker 192 -16 R0
SYMATTR Value V={Ue}
SYMATTR InstName U1
SYMBOL ind 256 0 R270
WINDOW 0 38 44 VTop 2
WINDOW 3 5 56 VBottom 2
WINDOW 39 37 114 VTop 2
SYMATTR InstName L1
SYMATTR Value {L}
SYMATTR SpiceLine Rser=1
SYMBOL schottky 464 0 R270
WINDOW 0 32 32 VTop 2
WINDOW 3 0 32 VBottom 2
SYMATTR InstName D1
SYMATTR Value MBR745
SYMATTR Description Diode
SYMATTR Type diode
SYMBOL cap 576 32 R0
SYMATTR InstName C1
SYMATTR Value 2200µ
SYMBOL res 736 16 R0
SYMATTR InstName R1
SYMATTR Value {RL}
SYMBOL EIT_Semiconductors\\comp_oc 144 128 R0
WINDOW 3 55 30 Invisible 2
SYMATTR InstName U2
SYMBOL res 224 0 R0
SYMATTR InstName R2
SYMATTR Value 4k7
SYMBOL EIT_Semiconductors\\op_3 -32 144 R0
WINDOW 123 -17 69 Invisible 2
WINDOW 3 -16 43 Invisible 2
SYMATTR InstName U3
SYMBOL res -176 64 R270
WINDOW 0 25 56 VTop 2
WINDOW 3 7 56 VBottom 2
SYMATTR InstName R3
SYMATTR Value {R2}
SYMBOL cap -64 64 R270
WINDOW 0 32 32 VTop 2
WINDOW 3 0 32 VBottom 2
SYMATTR InstName C2
SYMATTR Value {Cc}
SYMBOL res -288 64 R270
WINDOW 0 25 56 VTop 2
WINDOW 3 7 56 VBottom 2
SYMATTR InstName R4
SYMATTR Value {R1}
SYMBOL MDB_sym\\jumper 672 -80 R0
SYMATTR InstName X1
SYMBOL res -288 80 M0
SYMATTR InstName R5
SYMATTR Value {Att*Rpot+1u}
SYMBOL res -288 -64 M0
SYMATTR InstName R6
SYMATTR Value {(1-Att)*Rpot+1u}
SYMBOL MDB_sym\\source-V 32 208 R0
WINDOW 123 0 0 Left 2
WINDOW 39 0 0 Left 2
WINDOW 3 89 101 Left 2
SYMATTR InstName V1
SYMATTR Value PULSE({sawm} {sawp} 0 {.99/fsaw} {.01/fsaw} 0 {1/fsaw})
SYMBOL EIT_Semiconductors\\op_3 368 704 R0
WINDOW 123 -17 69 Invisible 2
WINDOW 3 -16 43 Invisible 2
SYMATTR InstName U5
SYMBOL res 224 624 R270
WINDOW 0 25 56 VTop 2
WINDOW 3 7 56 VBottom 2
SYMATTR InstName R7
SYMATTR Value {R2}
SYMBOL cap 336 624 R270
WINDOW 0 32 32 VTop 2
WINDOW 3 0 32 VBottom 2
SYMATTR InstName C3
SYMATTR Value {Cc}
SYMBOL res 112 624 R270
WINDOW 0 25 56 VTop 2
WINDOW 3 7 56 VBottom 2
SYMATTR InstName R8
SYMATTR Value {R1}
SYMBOL crtl-V-V 560 672 R0
SYMATTR InstName E1
SYMATTR Value laplace=.8/(s*tau+1)
SYMBOL MDB_sym\\source-V -208 192 R0
WINDOW 123 28 107 Left 2
WINDOW 39 0 0 Left 2
WINDOW 3 -118 152 Left 2
SYMATTR Value2 AC 1
SYMATTR InstName V2
SYMATTR Value PULSE(0 1 10m .10n .10n 10m 20m)
SYMBOL MDB_sym\\source-Vmarker 192 944 R0
SYMATTR Value V={Cc}
SYMATTR InstName U6
SYMBOL crtl-V-V 720 608 R0
SYMATTR InstName E2
SYMATTR Value laplace=.8/(s*10*tau+1)
SYMBOL MDB_sym\\jumper 784 560 M270
SYMATTR InstName X2
SYMBOL ind2 720 -624 R180
WINDOW 0 36 80 Left 2
WINDOW 3 36 40 Left 2
SYMATTR InstName L2
SYMATTR Value 100µ
SYMATTR Type ind
SYMBOL ind2 800 -624 R180
WINDOW 0 36 80 Left 2
WINDOW 3 36 40 Left 2
SYMATTR InstName L3
SYMATTR Value 100µ
SYMATTR Type ind
SYMBOL MDB_sym\\source-Vmarker 704 -768 R90
SYMATTR Value V=10V
SYMATTR InstName U4
SYMBOL cap 880 -464 R0
SYMATTR InstName C4
SYMATTR Value 2200µ
SYMBOL ind 880 -624 R0
SYMATTR InstName L4
SYMATTR Value 25µ
SYMBOL diode 880 -736 R0
SYMATTR InstName D2
SYMBOL diode 1008 -672 R90
WINDOW 0 0 32 VBottom 2
WINDOW 3 32 32 VTop 2
SYMATTR InstName D3
SYMBOL MDB_sym\\swMDBsingle 688 -544 R0
SYMATTR InstName U7
SYMBOL res 688 -512 R0
SYMATTR InstName R9
SYMATTR Value 1
SYMBOL MDB_sym\\source-V 240 -944 R0
WINDOW 3 28 81 Invisible 2
SYMATTR Value PULSE({sawm} {sawp} 0 {.99/fsaw} {.01/fsaw} 0 {1/fsaw})
SYMATTR InstName V4
SYMBOL bv 624 -528 M0
SYMATTR InstName B1
SYMATTR Value V=if(V(saw2)-V(pwCtrl)+0.5,1,-1)
SYMBOL MDB_sym\\source-V 208 -752 R0
WINDOW 3 28 81 Invisible 2
WINDOW 123 28 107 Left 2
SYMATTR Value PULSE(0 1 10m .10n .10n 10m 20m)
SYMATTR Value2 AC 1
SYMATTR InstName V3
TEXT -168 -440 Left 2 ;Regelverfahren bei geregelten Schaltwandlern\n-----------------------------------------------------------------------\nVoltage-mode VS current mode\n-----------------------------------------------------------------------\nhttp://schmidt-walter-schaltnetzteile.de/snt/snt_deu/sntdeu6.pdf
TEXT -568 -224 Left 2 ;Voltage mode
TEXT -312 432 Left 2 !.param VoltageMode=1\n+ kp = 5\n+ ki = 1\n+ Att = 0.1\n \n+ sawp = 10V\n+ sawm = -10V\n+ fsaw = 100k\n+ Ue = 5V\n+ R1 = 4k7\n+ R2 = {kp*R1}\n+ Rpot = 10k\n+ Vref = 5V\n+ RL = 25\n+ L = 100u\n+ Cc = {1/(R1*ki)}\n+ tau = 100u
TEXT 208 880 Left 2 !.tran 50m
TEXT 192 904 Left 2 ;.step param kp list -1 1 5 50 500
TEXT 736 -784 Left 2 !k L2 L3 .9
TEXT 720 -960 Left 2 ;if(x,y,z)     If x > .5, then y else z\ninv(x)        0. if x > .5, else 1.
RECTANGLE Normal 992 352 -576 -240 2
