Version 4
SHEET 1 1172 680
WIRE -384 -320 -448 -320
WIRE -352 -320 -384 -320
WIRE -384 -288 -448 -288
WIRE -352 -288 -384 -288
WIRE -512 -112 -640 -112
WIRE -320 -112 -448 -112
WIRE 0 -96 -128 -96
WIRE 192 -96 64 -96
WIRE -416 -64 -432 -64
WIRE -416 -48 -416 -64
WIRE 96 -48 80 -48
WIRE -816 -32 -832 -32
WIRE -752 -32 -816 -32
WIRE -640 -32 -640 -112
WIRE -640 -32 -672 -32
WIRE -624 -32 -640 -32
WIRE -528 -32 -544 -32
WIRE -448 -32 -528 -32
WIRE 96 -32 96 -48
WIRE -384 -16 -400 -16
WIRE -320 -16 -320 -112
WIRE -320 -16 -384 -16
WIRE -240 -16 -320 -16
WIRE -128 -16 -128 -96
WIRE -128 -16 -160 -16
WIRE -112 -16 -128 -16
WIRE -16 -16 -32 -16
WIRE 64 -16 -16 -16
WIRE -832 0 -832 -32
WIRE -448 0 -480 0
WIRE 128 0 112 0
WIRE 192 0 192 -96
WIRE 192 0 128 0
WIRE 240 0 192 0
WIRE 256 0 240 0
WIRE -528 16 -528 -32
WIRE 64 16 32 16
WIRE -416 32 -416 16
WIRE -416 32 -432 32
WIRE -16 32 -16 -16
WIRE 96 48 96 32
WIRE 96 48 80 48
WIRE -480 64 -480 0
WIRE -320 64 -320 -16
WIRE -320 64 -480 64
WIRE 32 80 32 16
WIRE 192 80 192 0
WIRE 192 80 32 80
WIRE -832 96 -832 80
WIRE -528 96 -528 80
WIRE -16 112 -16 96
WIRE -384 256 -416 256
WIRE -352 256 -384 256
WIRE -224 272 -272 272
WIRE -192 272 -224 272
WIRE -272 288 -272 272
WIRE -352 304 -352 256
WIRE -384 432 -416 432
WIRE -352 432 -384 432
WIRE -224 448 -272 448
WIRE -192 448 -224 448
WIRE -272 464 -272 448
WIRE -352 480 -352 432
FLAG -528 96 0
FLAG -384 -320 +10V
FLAG -384 -288 -10V
FLAG -416 -64 -10V
FLAG -416 32 +10V
FLAG -16 112 0
FLAG 96 -48 -10V
FLAG 96 48 +10V
FLAG 240 0 smooth
FLAG -832 96 0
FLAG -272 368 0
FLAG -352 352 0
FLAG -384 256 in
FLAG -224 272 lap_est
FLAG -816 -32 in
FLAG -272 544 0
FLAG -352 528 0
FLAG -384 432 in
FLAG -224 448 lap_formel
SYMBOL NJM4580 -416 48 M180
SYMATTR InstName U1
SYMBOL res -768 -16 R270
WINDOW 0 25 56 VTop 2
WINDOW 3 7 56 VBottom 2
SYMATTR InstName R1
SYMATTR Value 5.6k
SYMBOL res -640 -16 R270
WINDOW 0 25 56 VTop 2
WINDOW 3 7 56 VBottom 2
SYMATTR InstName R2
SYMATTR Value 6.8k
SYMBOL cap -512 16 M0
SYMATTR InstName C1
SYMATTR Value 10n
SYMBOL source-Vmarker -448 -320 R0
SYMATTR Value V=10V
SYMATTR InstName U2
SYMBOL source-Vmarker -448 -288 R0
SYMATTR Value V=-10V
SYMATTR InstName U3
SYMBOL cap -512 -96 R270
WINDOW 0 32 32 VTop 2
WINDOW 3 0 32 VBottom 2
SYMATTR InstName C2
SYMATTR Value 20n
SYMBOL NJM4580 96 64 M180
SYMATTR InstName U4
SYMBOL res -256 0 R270
WINDOW 0 25 56 VTop 2
WINDOW 3 7 56 VBottom 2
SYMATTR InstName R3
SYMATTR Value 680
SYMBOL res -128 0 R270
WINDOW 0 25 56 VTop 2
WINDOW 3 7 56 VBottom 2
SYMATTR InstName R4
SYMATTR Value 1k
SYMBOL cap 0 32 M0
SYMATTR InstName C3
SYMATTR Value 10n
SYMBOL cap 0 -80 R270
WINDOW 0 32 32 VTop 2
WINDOW 3 0 32 VBottom 2
SYMATTR InstName C4
SYMATTR Value 360n
SYMBOL source-V -832 -16 R0
WINDOW 123 28 109 Left 2
WINDOW 39 0 0 Left 2
SYMATTR Value2 AC 1
SYMATTR InstName V1
SYMATTR Value 1
SYMBOL crtl-V-V -272 272 R0
SYMATTR InstName E1
SYMATTR Value laplace=(1.063e14*s-2.384e9*s**2+17511.0*s**3-2.622e18)/(s**4-1.402e10*s**2-6.588e5*s**3-3.049e14*s-2.595e18)
SYMBOL crtl-V-V -272 448 R0
SYMATTR InstName E2
SYMATTR Value laplace=(5.364e16)/(7.552e12*s+6.515e8*s**2+23144.0*s**3+s**4+5.364e16)
TEXT -736 -432 Left 2 !.options plotwinsize=0
TEXT -864 136 Left 2 !.ac oct 1000 1 1meg
TEXT -56 -336 Left 2 ;.MEAS AC tmp max mag(V(in+))\n.MEAS AC fgu WHEN mag(V(in+))=tmp/sqrt(2)\n.MEAS AC bw1\n+ trig mag(V(in+)) = tmp/sqrt(2) rise=1\n+ targ mag(V(in+)) = tmp rise=1
TEXT 64 -672 Left 2 !.MEAS AC dcgain mag(V(smooth)) at 10Hz\n \n.MEAS AC BW trig mag(V(smooth))=dcgain fall=1\n+ targ mag(V(smooth))=dcgain/sqrt(2) fall=last\n \n.MEAS AC mx max mag(V(smooth))\n.MEAS AC passband WHEN mag(V(smooth))=tmp/sqrt(2)
