Version 4
SHEET 1 1092 804
WIRE 512 -656 512 -720
WIRE 0 -544 -32 -544
WIRE 16 -544 0 -544
WIRE 176 -544 160 -544
WIRE 192 -544 176 -544
WIRE 224 -544 192 -544
WIRE 512 -544 512 -576
WIRE 0 -464 0 -544
WIRE 32 -464 0 -464
WIRE 176 -464 176 -544
WIRE 176 -464 96 -464
WIRE 512 -416 512 -448
WIRE 176 -320 112 -320
WIRE 240 -320 176 -320
WIRE 512 -304 512 -336
WIRE 112 -272 112 -320
WIRE 240 -208 240 -320
WIRE -32 -160 -48 -160
WIRE 80 -160 48 -160
WIRE 112 -160 112 -192
WIRE 112 -160 80 -160
WIRE 176 -160 112 -160
WIRE -48 -128 -48 -160
WIRE -48 -128 -96 -128
WIRE 112 -128 112 -160
WIRE -96 -112 -96 -128
WIRE -48 -112 -48 -128
WIRE 240 -64 240 -112
WIRE -96 -32 -96 -48
WIRE -48 -32 -48 -48
WIRE -48 -32 -96 -32
WIRE 112 -16 112 -64
WIRE 240 -16 240 -64
WIRE 240 -16 112 -16
WIRE -144 16 -176 16
WIRE -128 16 -144 16
WIRE -48 16 -48 -32
WIRE -48 16 -128 16
WIRE 112 16 112 -16
WIRE 240 16 240 -16
WIRE -48 32 -48 16
WIRE -144 48 -144 16
WIRE -144 144 -144 128
WIRE -48 144 -48 96
WIRE 112 144 112 80
WIRE 240 144 240 96
WIRE -288 208 -368 208
WIRE -192 208 -224 208
WIRE -160 208 -192 208
WIRE -368 224 -368 208
WIRE -368 336 -368 304
WIRE 512 368 496 368
WIRE 528 368 512 368
WIRE 512 416 496 416
WIRE 528 416 512 416
WIRE 528 464 496 464
FLAG 240 144 0
FLAG 112 144 0
FLAG -48 144 0
FLAG -368 336 0
FLAG -144 144 0
FLAG -128 16 in
FLAG -192 208 in
FLAG 176 -320 VCC
FLAG 192 -544 VCC
FLAG 240 -64 e
FLAG 512 -304 0
FLAG 368 -496 0
FLAG 512 368 Rb
FLAG 512 416 Re
FLAG 80 -160 b
SYMBOL source-V -368 208 R0
WINDOW 123 0 0 Left 2
WINDOW 39 0 0 Left 2
SYMATTR InstName V1
SYMATTR Value {Vv1}
SYMBOL res 224 0 R0
SYMATTR InstName R1
SYMATTR Value {Re}
SYMBOL cap 96 -128 R0
SYMATTR InstName C1
SYMATTR Value 68p
SYMBOL cap 96 16 R0
SYMATTR InstName C2
SYMATTR Value 68p
SYMBOL cap -64 -112 R0
SYMATTR InstName C3
SYMATTR Value {Cj}
SYMBOL cap -64 32 R0
SYMATTR InstName C4
SYMATTR Value {Co}
SYMBOL source-Vmarker -32 -544 M180
SYMATTR InstName U1
SYMATTR Value V={Vcc}
SYMBOL res 96 -288 R0
SYMATTR InstName R2
SYMATTR Value {Rb}
SYMBOL ind -48 -144 R270
WINDOW 0 32 56 VTop 2
WINDOW 3 5 56 VBottom 2
SYMATTR InstName L1
SYMATTR Value {Lo}
SYMBOL diode -80 -48 R180
WINDOW 0 24 64 Left 2
WINDOW 3 24 36 Left 2
SYMATTR InstName D1
SYMATTR Value 1N4148
SYMBOL res -128 32 M0
SYMATTR InstName R4
SYMATTR Value 100k
SYMBOL cap -224 192 R90
WINDOW 0 0 32 VBottom 2
WINDOW 3 32 32 VTop 2
SYMATTR InstName C5
SYMATTR Value 100n
SYMBOL SBORKA\\BJT\\bfr92 176 -208 R0
WINDOW 38 51 34 Left 2
SYMATTR InstName U2
SYMBOL source-V 0 -544 M90
WINDOW 123 0 0 Left 2
WINDOW 39 0 0 Left 2
WINDOW 0 -45 43 VRight 2
WINDOW 3 43 27 VRight 2
SYMATTR InstName V2
SYMATTR Value -.8V
SYMBOL MDB_sym\\jumperRes 64 -400 M180
SYMATTR InstName U4
SYMBOL SBORKA\\BJT\\bfr92 448 -544 R0
WINDOW 38 51 34 Left 2
SYMATTR InstName U3
SYMBOL source-Vmarker 512 -720 M180
SYMATTR InstName U5
SYMATTR Value V=20V
SYMBOL source-I 448 -496 R90
WINDOW 0 -27 40 VBottom 2
WINDOW 3 27 40 VTop 2
WINDOW 123 0 0 Left 2
WINDOW 39 0 0 Left 2
SYMATTR InstName I1
SYMATTR Value 0
SYMBOL res 496 -432 R0
SYMATTR InstName R3
SYMATTR Value {Re}
SYMBOL res 496 -672 R0
SYMATTR InstName R5
SYMATTR Value 10
SYMBOL source-Vmarker 496 368 M180
SYMATTR InstName U6
SYMATTR Value V={Rb}
SYMBOL source-Vmarker 496 416 M180
SYMATTR InstName U7
SYMATTR Value V={Re}
SYMBOL source-Vmarker 496 464 M180
SYMATTR InstName U8
SYMATTR Value V={Vcc}
TEXT -384 448 Left 2 !.tran 20m
TEXT 80 304 Left 2 !.param fa = 100Meg\n \n.param Vcc = 3V\n.param Ve0 = 1.5V\n.param Ic0 = 5mA\n.param Vbe0 = 0.6V\n.param B = 124\n.param A = B/(1+B)\n.param Re = {Ve0*A/Ic0}\n.param Rb = {(Vcc-Vbe0-Ic0/A*Re)/(Ic0/B)}\n;.param Rb = 10.7k\n;.param Re = 750\n \n \n.param Lo = 100n\n.param Co = 47n\n.param Cj = 5p
TEXT -384 408 Left 2 !.param Vv1=0
TEXT 432 -248 Left 2 ;hfe:\n124 @ 5mA
TEXT -64 -272 Left 2 !.ic V(b) = 3.8V
