Version 4
SHEET 1 952 680
WIRE 624 -32 304 -32
WIRE 784 -32 624 -32
WIRE 304 -16 304 -32
WIRE 624 -16 624 -32
WIRE 784 0 784 -32
WIRE 304 96 304 64
WIRE 320 96 304 96
WIRE 352 96 320 96
WIRE 624 96 624 64
WIRE 624 96 560 96
WIRE 784 96 784 80
WIRE 304 112 304 96
WIRE 624 112 624 96
WIRE 32 160 0 160
WIRE 160 160 112 160
WIRE 192 160 160 160
WIRE 240 160 192 160
WIRE 416 160 240 160
WIRE 688 160 496 160
WIRE 768 160 688 160
WIRE 0 192 0 160
WIRE 160 192 160 160
WIRE 768 192 768 160
WIRE 416 224 416 160
WIRE 496 224 496 160
WIRE 304 240 304 208
WIRE 624 240 624 208
WIRE 352 272 352 96
WIRE 560 272 560 96
WIRE 0 288 0 272
WIRE 160 288 160 272
WIRE 768 304 768 272
WIRE 304 352 304 320
WIRE 624 352 624 320
WIRE 624 352 304 352
WIRE 208 384 144 384
WIRE 416 384 416 320
WIRE 416 384 208 384
WIRE 496 384 496 320
WIRE 496 384 416 384
WIRE 624 400 624 352
WIRE 144 416 144 384
WIRE 144 512 144 496
WIRE 624 512 624 480
FLAG 768 304 0
FLAG 160 288 0
FLAG 0 288 0
FLAG 784 96 0
FLAG 320 96 c1
FLAG 624 96 c2
FLAG 192 160 in
FLAG 624 512 0
FLAG 144 512 0
FLAG 208 384 min
SYMBOL EIT_Semiconductors\\npn 240 112 R0
WINDOW 3 -40 98 Left 2
SYMATTR Value CA3046
SYMATTR InstName Q1
SYMBOL EIT_Semiconductors\\npn 688 112 M0
WINDOW 3 -45 106 Left 2
SYMATTR Value CA3046
SYMATTR InstName Q2
SYMBOL res 288 -32 R0
SYMATTR InstName RC1
SYMATTR Value 10k
SYMBOL res 608 -32 R0
SYMATTR InstName RC2
SYMATTR Value 10k
SYMBOL res 752 176 R0
SYMATTR InstName R1
SYMATTR Value 10
SYMBOL res 144 176 R0
SYMATTR InstName R2
SYMATTR Value 10
SYMBOL res 16 176 R270
WINDOW 0 25 56 VTop 2
WINDOW 3 7 56 VBottom 2
SYMATTR InstName R3
SYMATTR Value 40
SYMBOL source-V 0 176 R0
WINDOW 3 28 56 Left 2
WINDOW 123 0 0 Left 2
WINDOW 39 0 0 Left 2
SYMATTR Value 0
SYMATTR InstName V1
SYMBOL source-V 784 -16 R0
SYMATTR InstName Vplus
SYMATTR Value 10
SYMBOL res 288 224 R0
WINDOW 0 -46 44 Left 2
WINDOW 3 -43 74 Left 2
SYMATTR InstName RE1
SYMATTR Value {re}
SYMBOL res 608 224 R0
SYMATTR InstName RE2
SYMATTR Value {re}
SYMBOL source-I 624 480 R180
WINDOW 0 29 73 Left 2
WINDOW 3 29 17 Left 2
SYMATTR InstName I1
SYMATTR Value 1m
SYMBOL source-V 144 400 R0
SYMATTR InstName Vmin
SYMATTR Value -10
SYMBOL EIT_Semiconductors\\pnp_o 352 224 R0
WINDOW 3 35 64 Left 2
WINDOW 0 43 34 Left 2
SYMATTR Value PNPx
SYMATTR InstName Q1p
SYMBOL EIT_Semiconductors\\pnp_o 560 224 M0
WINDOW 3 37 62 Left 2
WINDOW 0 52 33 Left 2
SYMATTR Value PNPx
SYMATTR InstName Q2p
TEXT 24 24 Left 2 !.dc v1 -1 1 10m
TEXT 32 -24 Left 2 !.param re=10m
TEXT 24 -64 Left 2 !.step Vplus 5 10 1
TEXT 344 -64 Left 2 !.model pnpx pnp (IS=6p)
