Version 4
SHEET 1 880 680
WIRE 432 16 144 16
WIRE 320 32 256 32
WIRE 256 48 256 32
WIRE 320 48 320 32
WIRE 432 144 432 16
WIRE 256 160 256 128
WIRE 304 160 256 160
WIRE 352 160 304 160
WIRE 256 192 256 160
WIRE 144 240 144 16
WIRE 192 240 144 240
WIRE 432 240 432 224
WIRE 352 256 352 208
WIRE 256 320 256 288
WIRE 352 352 352 336
FLAG 256 320 0
FLAG 320 48 0
FLAG 304 160 c
FLAG 352 352 0
FLAG 432 240 0
SYMBOL EIT_Semiconductors\\npn 192 192 R0
SYMATTR InstName Q1
SYMATTR Value 2N4124
SYMBOL source-I 256 128 R180
WINDOW 0 29 73 Left 2
WINDOW 3 29 17 Left 2
SYMATTR InstName IC
SYMATTR Value 1m
SYMBOL crtl-V-I 432 128 R0
SYMATTR InstName G1
SYMATTR Value 1
SYMBOL source-V 352 240 R0
SYMATTR InstName VCE
SYMATTR Value 5V
TEXT 160 -8 Left 2 !.dc dec IC 0.01m 100m 10
TEXT 168 -32 Left 2 !.step temp 0 125 25
