Version 4
SHEET 1 880 680
WIRE 320 -160 256 -160
WIRE 320 -144 320 -160
WIRE 208 -96 176 -96
WIRE 288 -96 272 -96
WIRE 320 -32 320 -64
WIRE 352 -32 320 -32
WIRE 368 -32 352 -32
WIRE 464 -32 432 -32
WIRE 480 -32 464 -32
WIRE 176 -16 176 -96
WIRE 192 -16 176 -16
WIRE 288 -16 288 -96
WIRE 288 -16 272 -16
WIRE 320 -16 320 -32
WIRE 320 -16 288 -16
WIRE 320 32 320 -16
WIRE 0 80 -16 80
WIRE 96 80 80 80
WIRE 176 80 176 -16
WIRE 176 80 160 80
WIRE 208 80 176 80
WIRE 256 80 208 80
WIRE 480 80 480 -32
WIRE -16 128 -16 80
WIRE 320 144 320 128
WIRE 352 144 320 144
WIRE 384 144 352 144
WIRE -16 240 -16 208
WIRE 320 240 320 224
WIRE 480 240 480 160
FLAG 320 240 0
FLAG -16 240 0
FLAG 480 240 0
FLAG 464 -32 out
FLAG 352 -32 c
FLAG 208 80 b
FLAG 352 144 e
SYMBOL EIT_Semiconductors\\npn 256 32 R0
SYMATTR InstName Q1
SYMATTR Value BC547B
SYMBOL res 304 128 R0
WINDOW 3 28 81 Left 2
SYMATTR Value {180-116*var}
SYMATTR InstName RE
SYMBOL res 288 -32 R90
WINDOW 0 7 56 VBottom 2
WINDOW 3 25 56 VTop 2
SYMATTR InstName RB
SYMATTR Value 560k
SYMBOL res 304 -160 R0
SYMATTR InstName RC
SYMATTR Value 5.6k
SYMBOL source-Vmarker 256 -160 R0
SYMATTR Value V=8.4V
SYMATTR InstName U1
SYMBOL cap 96 96 R270
WINDOW 0 32 32 VTop 2
WINDOW 3 0 32 VBottom 2
SYMATTR InstName C1
SYMATTR Value 100n
SYMBOL res -16 96 R270
WINDOW 0 25 56 VTop 2
WINDOW 3 7 56 VBottom 2
SYMATTR InstName R1
SYMATTR Value 10k
SYMBOL source-V -16 112 R0
SYMATTR InstName V1
SYMATTR Value AC 1
SYMBOL res 464 64 R0
SYMATTR InstName RL
SYMATTR Value {1k+var*9k}
SYMBOL Elko 368 -16 R270
WINDOW 0 32 32 VTop 2
WINDOW 3 0 32 VBottom 2
SYMATTR InstName C2
SYMATTR Value {c2}
SYMBOL cap 272 -112 R90
WINDOW 0 0 32 VBottom 2
WINDOW 3 32 32 VTop 2
SYMATTR InstName CjC
SYMATTR Value 10p
TEXT 32 240 Left 2 !.param var=0 c2=1u
TEXT 16 -80 Left 2 !;op
TEXT -8 -128 Left 2 !.ac oct 10 1 10meg
TEXT -32 288 Left 2 !.step param c2 list 1n 10n 100n 1u 10u 100u 1000u
