Version 4
SHEET 1 1188 2276
WIRE -768 -464 -864 -464
WIRE -608 -464 -768 -464
WIRE -400 -464 -608 -464
WIRE -128 -464 -400 -464
WIRE 112 -464 -128 -464
WIRE -1072 -448 -1120 -448
WIRE -1040 -448 -1072 -448
WIRE -768 -416 -768 -464
WIRE -608 -416 -608 -464
WIRE -400 -416 -400 -464
WIRE -1072 -400 -1120 -400
WIRE -1040 -400 -1072 -400
WIRE -768 -304 -768 -336
WIRE -768 -304 -864 -304
WIRE -1200 -272 -1216 -272
WIRE -1168 -272 -1200 -272
WIRE -1072 -272 -1088 -272
WIRE -768 -272 -768 -304
WIRE -608 -272 -608 -336
WIRE -400 -272 -400 -336
WIRE -544 -224 -704 -224
WIRE -496 -224 -544 -224
WIRE -464 -224 -496 -224
WIRE -1216 -192 -1216 -272
WIRE -496 -144 -496 -224
WIRE -400 -144 -400 -176
WIRE -400 -144 -496 -144
WIRE -768 -128 -768 -176
WIRE -608 -128 -608 -176
WIRE -400 -128 -400 -144
WIRE -1216 -96 -1216 -112
WIRE -400 48 -400 -48
WIRE -368 48 -400 48
WIRE -336 48 -368 48
WIRE -1040 112 -1088 112
WIRE -816 112 -1040 112
WIRE -768 112 -768 -128
WIRE -768 112 -816 112
WIRE -1088 160 -1088 112
WIRE -1040 160 -1040 112
WIRE -816 160 -816 112
WIRE -768 160 -768 112
WIRE -1088 256 -1088 240
WIRE -1040 256 -1040 240
WIRE -1040 256 -1088 256
WIRE -816 256 -816 240
WIRE -768 256 -768 240
WIRE -768 256 -816 256
WIRE 112 272 112 -464
WIRE 112 272 16 272
WIRE -1040 288 -1040 256
WIRE -816 288 -816 256
WIRE -608 320 -608 -128
WIRE -176 320 -608 320
WIRE -96 320 -176 320
WIRE -48 320 -96 320
WIRE 112 320 112 272
WIRE -1104 336 -1264 336
WIRE -720 336 -752 336
WIRE -96 336 -96 320
WIRE 48 368 16 368
WIRE -176 400 -176 320
WIRE -720 416 -720 336
WIRE -720 416 -1264 416
WIRE -96 416 -96 400
WIRE 112 432 112 416
WIRE -1264 448 -1264 416
WIRE -96 496 -96 480
WIRE 112 528 112 512
WIRE 224 528 112 528
WIRE -1040 544 -1040 384
WIRE -880 544 -880 528
WIRE 112 544 112 528
WIRE -816 576 -816 384
WIRE -624 576 -816 576
WIRE -608 576 -624 576
WIRE -512 576 -528 576
WIRE -384 576 -448 576
WIRE -208 576 -384 576
WIRE -176 576 -176 480
WIRE -176 576 -208 576
WIRE -96 576 -96 560
WIRE -96 576 -176 576
WIRE -1040 592 -1040 544
WIRE -944 592 -1040 592
WIRE 224 592 224 528
WIRE -1040 624 -1040 592
WIRE -816 624 -816 576
WIRE 112 640 112 624
WIRE -384 656 -384 576
WIRE -384 656 -528 656
WIRE -944 672 -976 672
WIRE -880 672 -880 640
WIRE -880 672 -944 672
WIRE -96 688 -96 576
WIRE 48 688 -96 688
WIRE -624 704 -624 576
WIRE -592 704 -624 704
WIRE 224 704 224 672
WIRE -384 736 -384 656
WIRE -512 752 -528 752
WIRE -512 784 -512 752
WIRE -448 784 -512 784
WIRE -1040 800 -1040 720
WIRE -1040 800 -1088 800
WIRE -1024 800 -1040 800
WIRE -928 800 -944 800
WIRE -816 800 -816 720
WIRE -816 800 -848 800
WIRE -768 800 -816 800
WIRE -512 832 -512 784
WIRE -1088 848 -1088 800
WIRE -1040 848 -1040 800
WIRE -944 848 -944 800
WIRE -816 848 -816 800
WIRE -768 848 -768 800
WIRE -1088 960 -1088 928
WIRE -1040 960 -1040 928
WIRE -1040 960 -1088 960
WIRE -944 960 -944 928
WIRE -944 960 -1040 960
WIRE -816 960 -816 928
WIRE -816 960 -944 960
WIRE -768 960 -768 928
WIRE -768 960 -816 960
WIRE -512 960 -512 912
WIRE -512 960 -768 960
WIRE -384 960 -384 832
WIRE -384 960 -512 960
WIRE -272 960 -384 960
WIRE 112 960 112 736
WIRE 112 960 -272 960
FLAG -368 48 V-
FLAG -768 -128 c0
FLAG -608 -128 c1
FLAG -1264 416 IN+
IOPIN -1264 416 In
FLAG -1264 336 IN-
IOPIN -1264 336 In
FLAG -880 528 V+
FLAG -624 576 C4
FLAG -1264 448 0
FLAG -1216 -96 0
FLAG -1200 -272 ein
FLAG -1040 544 C3
FLAG -336 48 V-
IOPIN -336 48 In
FLAG -208 576 C6
FLAG 224 528 out
FLAG 224 704 0
FLAG -1072 -448 V+
FLAG -1072 -400 V-
FLAG -128 -464 V+
FLAG -272 960 V-
FLAG -1072 -272 IN-
IOPIN -1072 -272 In
SYMBOL EIT_Semiconductors\\pnp -704 -176 R180
SYMATTR InstName Q9
SYMATTR Value CA3096_pnp
SYMBOL EIT_Semiconductors\\pnp -544 -176 R180
SYMATTR InstName Q10
SYMATTR Value CA3096_pnp
SYMBOL EIT_Semiconductors\\pnp -464 -176 M180
SYMATTR InstName Q11
SYMATTR Value CA3096_pnp
SYMBOL res -416 -432 R0
SYMATTR InstName RE11
SYMATTR Value 1.2k
SYMBOL res -624 -432 R0
SYMATTR InstName RE10
SYMATTR Value 1.2k
SYMBOL res -784 -432 R0
SYMATTR InstName Re9a
SYMATTR Value 33k
SYMBOL res -848 -400 M0
SYMATTR InstName Re9b
SYMATTR Value 10k
SYMBOL res -416 -144 R0
SYMATTR InstName Rref
SYMATTR Value 39k
SYMBOL EIT_Semiconductors\\pnp -752 384 R180
WINDOW 3 77 0 Left 2
SYMATTR Value CA3096_pnp
SYMATTR InstName Q2
SYMBOL EIT_Semiconductors\\pnp -1104 384 M180
WINDOW 3 75 75 Left 2
SYMATTR Value CA3096_pnp
SYMATTR InstName Q1
SYMBOL res -1056 144 R0
SYMATTR InstName RE1
SYMATTR Value 1.8k
SYMBOL res -800 144 M0
SYMATTR InstName RE2
SYMATTR Value 1.8k
SYMBOL res -1072 144 M0
SYMATTR InstName JD1
SYMATTR Value {JD1}
SYMBOL res -784 144 R0
SYMATTR InstName JD2
SYMATTR Value {JD2}
SYMBOL EIT_Semiconductors\\npn -976 624 M0
SYMATTR InstName Q3
SYMATTR Value CA3046
SYMBOL EIT_Semiconductors\\npn -880 624 R0
SYMATTR InstName Q4
SYMATTR Value CA3046
SYMBOL res -928 784 R90
WINDOW 0 7 56 VBottom 2
WINDOW 3 -28 188 VTop 2
SYMATTR InstName Rpos1
SYMATTR Value {(1-off)*Ros}
SYMBOL res -1056 832 R0
SYMATTR InstName J2
SYMATTR Value {J2}
SYMBOL res -800 832 M0
SYMATTR InstName J3
SYMATTR Value {J3}
SYMBOL res -1072 832 M0
SYMATTR InstName RE3
SYMATTR Value 1k
SYMBOL res -784 832 R0
SYMATTR InstName RE4
SYMATTR Value 1k
SYMBOL res -928 688 R180
WINDOW 0 36 76 Left 2
WINDOW 3 36 40 Left 2
SYMATTR InstName J1
SYMATTR Value {J1}
SYMBOL res -832 784 R90
WINDOW 0 7 56 VBottom 2
WINDOW 3 -31 -76 VTop 2
SYMATTR InstName Rpos2
SYMATTR Value {off*Ros}
SYMBOL res -960 832 R0
SYMATTR InstName J4
SYMATTR Value {J4}
SYMBOL source-V -1216 -208 R0
WINDOW 123 33 60 Left 2
WINDOW 39 0 0 Left 2
WINDOW 3 24 95 Left 2
SYMATTR Value2 AC 1
SYMATTR Value SINE(0 2 2k)
SYMATTR InstName V4
SYMBOL res -880 -480 R0
SYMATTR InstName J10
SYMATTR Value {J10}
SYMBOL res -1072 -288 R90
WINDOW 0 7 56 VBottom 2
WINDOW 3 25 56 VTop 2
SYMATTR InstName R1
SYMATTR Value 5.6k
SYMBOL res -624 592 R270
WINDOW 0 25 56 VTop 2
WINDOW 3 7 56 VBottom 2
SYMATTR InstName J5
SYMATTR Value {J5}
SYMBOL cap -448 560 R90
WINDOW 0 0 32 VBottom 2
WINDOW 3 32 32 VTop 2
SYMATTR InstName Ccomp1
SYMATTR Value 33p
SYMBOL EIT_Semiconductors\\npn -448 736 R0
SYMATTR InstName Q5
SYMATTR Value CA3046
SYMBOL EIT_Semiconductors\\npn -592 656 R0
SYMATTR InstName Q6
SYMATTR Value CA3046
SYMBOL res -528 816 R0
SYMATTR InstName RE5
SYMATTR Value 22k
SYMBOL EIT_Semiconductors\\npn 48 320 R0
SYMATTR InstName Q8
SYMATTR Value CA3046
SYMBOL EIT_Semiconductors\\npn -48 272 R0
WINDOW 3 26 -24 Left 2
SYMATTR Value CA3046
SYMATTR InstName Q12
SYMBOL EIT_Semiconductors\\pnp 48 736 M180
WINDOW 3 -82 -13 Left 2
SYMATTR InstName Q13
SYMATTR Value CA3096_pnp
SYMBOL res 96 416 R0
SYMATTR InstName RE6
SYMATTR Value 33
SYMBOL res 96 528 R0
SYMATTR InstName RE7
SYMATTR Value 33
SYMBOL diode -112 336 R0
WINDOW 0 53 26 Left 2
WINDOW 3 50 52 Left 2
SYMATTR InstName D1
SYMATTR Value 1N4148
SYMBOL res -160 384 M0
SYMATTR InstName J6
SYMATTR Value {J7}
SYMBOL diode -112 416 R0
WINDOW 0 53 26 Left 2
WINDOW 3 50 52 Left 2
SYMATTR InstName D2
SYMATTR Value 1N4148
SYMBOL diode -112 496 R0
WINDOW 0 53 26 Left 2
WINDOW 3 50 52 Left 2
SYMATTR InstName D3
SYMATTR Value 1N4148
SYMBOL res 240 576 M0
WINDOW 0 -2 5 VLeft 2
WINDOW 3 -12 120 VLeft 2
SYMATTR InstName R2
SYMATTR Value 560
SYMBOL source-Vmarker -1120 -448 R0
SYMATTR Value V=10V
SYMATTR InstName U1
SYMBOL source-Vmarker -1120 -400 R0
SYMATTR Value V=-10V
SYMATTR InstName U2
TEXT -976 -64 Left 2 ;Stromquellen-\nBank
TEXT -1160 64 Left 2 ;PNP-\nDiff. stufe
TEXT -1144 992 Left 2 ;Stromspiegel
TEXT -160 -312 Left 2 !.param open = 100meg\n.param close = 1u\n.param JD1 = CLOSE\n.param JD2 = CLOSE\n.param J1 = CLOSE\n.param J2 = OPEN\n.param J3 = OPEN\n.param J4 = OPEN\n.param J5 = CLOSE\n.param J7 = CLOSE\n.param J10 = OPEN\n \n.param Ros = 1k\n.param off = 0.5
TEXT -152 -376 Left 2 !.tran 0 {2/2k} 0
TEXT -200 112 Left 2 ;.step param off 0.7 0.999 0.1
TEXT -632 992 Left 2 ;Darlington- Stufe
TEXT -240 992 Left 2 ;Endstufe
RECTANGLE Normal -224 0 -1008 -512 2
RECTANGLE Normal -688 448 -1200 32 2
RECTANGLE Normal -688 1024 -1200 480 2
RECTANGLE Normal -304 1024 -656 512 2
RECTANGLE Normal 192 1024 -256 224 2
