Version 4
SHEET 1 884 680
WIRE 80 -880 -80 -880
WIRE 80 -848 80 -880
WIRE -32 -672 -80 -672
WIRE 80 -672 80 -768
WIRE 80 -672 -32 -672
WIRE 192 -672 80 -672
WIRE 240 -672 192 -672
WIRE -32 -624 -32 -672
WIRE 192 -624 192 -672
WIRE -80 -608 -80 -672
WIRE 240 -608 240 -672
WIRE -80 -528 -80 -560
WIRE -32 -528 -32 -544
WIRE -32 -528 -80 -528
WIRE 192 -528 192 -544
WIRE 240 -528 240 -560
WIRE 240 -528 192 -528
WIRE -32 -496 -32 -528
WIRE 192 -496 192 -528
WIRE -224 -448 -304 -448
WIRE -96 -448 -224 -448
WIRE 288 -448 256 -448
WIRE -224 -368 -304 -368
WIRE 288 -368 288 -448
WIRE 288 -368 -224 -368
WIRE -32 -320 -32 -400
WIRE -32 -320 -48 -320
WIRE 192 -320 192 -400
WIRE 208 -320 192 -320
WIRE -32 -288 -32 -320
WIRE 192 -288 192 -320
WIRE 80 -240 64 -240
WIRE 112 -240 80 -240
WIRE 192 -240 192 -256
WIRE 368 -240 192 -240
WIRE 464 -240 400 -240
WIRE 464 -208 464 -240
WIRE -32 -192 -32 -256
WIRE 64 -192 -32 -192
WIRE 64 -176 64 -192
WIRE -32 -160 -32 -192
WIRE 192 -160 192 -240
WIRE 112 -144 112 -240
WIRE 112 -144 80 -144
WIRE -448 -128 -448 -160
WIRE -432 -128 -448 -128
WIRE 64 -112 64 -128
WIRE 64 -112 32 -112
WIRE 128 -112 64 -112
WIRE -448 -96 -448 -128
WIRE 464 -96 464 -128
WIRE -448 0 -448 -16
WIRE -32 16 -32 -64
WIRE -32 16 -80 16
WIRE -16 16 -32 16
WIRE 80 16 64 16
WIRE 192 16 192 -64
WIRE 192 16 160 16
WIRE 240 16 192 16
WIRE -80 64 -80 16
WIRE 240 64 240 16
WIRE -32 80 -32 16
WIRE 64 80 64 16
WIRE 192 80 192 16
WIRE -80 176 -80 144
WIRE -32 176 -32 128
WIRE -32 176 -80 176
WIRE 64 176 64 128
WIRE 64 176 -32 176
WIRE 80 176 64 176
WIRE 192 176 192 128
WIRE 192 176 80 176
WIRE 240 176 240 144
WIRE 240 176 192 176
WIRE -448 192 -448 176
WIRE -400 320 -480 320
WIRE -480 352 -480 320
WIRE 80 352 80 176
WIRE 80 352 -80 352
WIRE -480 464 -480 432
FLAG -224 -448 IN-
IOPIN -224 -448 In
FLAG -224 -368 IN+
IOPIN -224 -368 In
FLAG -384 -368 0
FLAG -432 -128 IN-
IOPIN -432 -128 In
FLAG -448 -240 IN+
IOPIN -448 -240 In
FLAG 208 -320 C+
FLAG -48 -320 C-
FLAG 464 -96 0
FLAG -480 464 0
FLAG -448 0 0
FLAG 448 528 0
FLAG 448 480 0
FLAG 80 -240 mir
FLAG -448 96 mir
FLAG -448 192 0
SYMBOL EIT_Semiconductors\\pnp -96 -400 M180
WINDOW 3 77 0 Left 2
SYMATTR Value CA3096_pnp
SYMATTR InstName Q1
SYMBOL EIT_Semiconductors\\pnp 256 -400 R180
WINDOW 3 75 75 Left 2
SYMATTR Value CA3096_pnp
SYMATTR InstName Q2
SYMBOL res -48 -640 R0
SYMATTR InstName RE1
SYMATTR Value 1.8k
SYMBOL res 208 -640 M0
SYMATTR InstName RE2
SYMATTR Value 1.8k
SYMBOL EIT_Semiconductors\\npn 32 -160 M0
SYMATTR InstName Q3
SYMATTR Value CA3046
SYMBOL EIT_Semiconductors\\npn 128 -160 R0
SYMATTR InstName Q4
SYMATTR Value CA3046
SYMBOL res 80 0 R90
WINDOW 0 7 56 VBottom 2
WINDOW 3 -28 188 VTop 2
SYMATTR InstName Rpos1
SYMATTR Value {(1-offs)*Roffs}
SYMBOL res -64 48 M0
SYMATTR InstName RE3
SYMATTR Value 1k
SYMBOL res 224 48 R0
SYMATTR InstName RE4
SYMATTR Value 1k
SYMBOL res 176 0 R90
WINDOW 0 7 56 VBottom 2
WINDOW 3 -31 -76 VTop 2
SYMATTR InstName Rpos2
SYMATTR Value {offs*Roffs}
SYMBOL MDB_sym\\source-Vmarker -80 -880 R0
SYMATTR Value V={Vcc}
SYMATTR InstName U1
SYMBOL MDB_sym\\source-Vmarker -80 352 R0
SYMATTR Value V={Vee}
SYMATTR InstName U2
SYMBOL res -288 -384 R90
WINDOW 0 7 56 VBottom 2
WINDOW 3 25 56 VTop 2
SYMATTR InstName R3
SYMATTR Value 100meg
SYMBOL MDB_sym\\jumperSetable -32 112 R90
SYMATTR InstName U3
SYMBOL MDB_sym\\jumperSetable 64 112 R90
SYMATTR InstName U4
SYMBOL MDB_sym\\jumperSetable 192 112 M90
SYMATTR InstName U5
SYMBOL MDB_sym\\jumperSetable -80 -576 M90
WINDOW 0 -7 -32 Invisible 2
WINDOW 3 -7 -36 Center 2
SYMATTR InstName U6
SYMATTR Value close={NoRe}
SYMBOL MDB_sym\\jumperSetable 240 -576 M90
WINDOW 0 -7 -32 Invisible 2
SYMATTR InstName U7
SYMATTR Value close={NoRe}
SYMBOL MDB_sym\\jumperSetable 448 512 M90
SYMATTR InstName U8
SYMATTR Value close={EnMirr}
SYMBOL MDB_sym\\source-V -448 -256 R0
WINDOW 123 0 0 Left 2
WINDOW 39 0 0 Left 2
SYMATTR InstName V1
SYMATTR Value SINE(0 50m {f0})
SYMBOL MDB_sym\\arrow_curr 384 -240 R90
WINDOW 0 -4 0 VBottom 2
SYMATTR InstName idv
SYMBOL MDB_sym\\source-V -448 -112 R0
WINDOW 3 -133 152 Left 2
WINDOW 123 0 0 Left 2
WINDOW 39 0 0 Left 2
SYMATTR InstName V2
SYMATTR Value PULSE(0 {InOffs} 0 {10/f0} 10u {5/f0} {20/f0})
SYMBOL MDB_sym\\source-I 80 -768 R180
WINDOW 0 29 73 Left 2
WINDOW 3 29 17 Left 2
WINDOW 123 0 0 Left 2
WINDOW 39 0 0 Left 2
SYMATTR InstName I1
SYMATTR Value {I0}
SYMBOL MDB_sym\\source-V -480 336 R0
WINDOW 3 -62 156 Left 2
WINDOW 123 0 0 Left 2
WINDOW 39 0 0 Left 2
SYMATTR InstName V3
SYMATTR Value SINE(0 1 {10*f0})
SYMBOL MDB_sym\\swMDBsingle 80 -160 M0
SYMATTR InstName U9
SYMBOL MDB_sym\\source-V -448 80 R0
WINDOW 3 -133 152 Left 2
WINDOW 123 0 0 Left 2
WINDOW 39 0 0 Left 2
SYMATTR InstName V4
SYMATTR Value PULSE(0 1 0 10n 10n {20/f0} {40/f0})
SYMBOL MDB_sym\\arrow_curr -32 -272 R0
SYMATTR InstName Ic1
SYMBOL MDB_sym\\arrow_curr 192 -272 M0
SYMATTR InstName Ic2
TEXT -152 -720 Left 2 ;PNP-\nDiff. stufe
TEXT -136 208 Left 2 ;Stromspiegel
TEXT -304 424 Left 2 !.model npnA npn (Is=9.7e-15 Bf=300)\n.model pnpB pnp (Is=9.7e-15 Bf=300)
TEXT 136 264 Left 2 !.param pnpdiff=1\n+ I0 = 40u\n+ Vcc = 10V\n+ Vee = -10V\n+ Roffs = 1k\n+ offs = 0.5\n+ f0 = 1k\n+ InOffs = 3V
TEXT -306 390 Left 2 !.tran 0 {40/f0} {1/(10*f0)}
TEXT 168 -904 Left 2 !.param val=0\n+ NoRe = 1\n+ EnMirr = 1
RECTANGLE Normal 320 -336 -192 -752 2
RECTANGLE Normal 320 240 -192 -304 2
