Version 4
SHEET 1 880 680
WIRE 112 80 -256 80
WIRE 112 128 112 80
WIRE 112 240 112 208
WIRE 112 240 0 240
WIRE 0 256 0 240
WIRE -256 320 -256 80
WIRE 112 336 112 240
WIRE 0 384 0 336
WIRE 48 384 0 384
WIRE 0 432 0 384
WIRE -256 560 -256 400
WIRE 0 560 0 512
WIRE 112 560 112 448
FLAG 0 560 0
FLAG 112 560 0
FLAG -256 560 0
SYMBOL res 96 112 R0
SYMATTR InstName R1
SYMATTR Value 3.3k
SYMBOL TLV431TI 112 400 R0
SYMATTR InstName U1
SYMBOL res -16 240 R0
SYMATTR InstName R2
SYMATTR Value 1k
SYMBOL res -16 416 R0
SYMATTR InstName R3
SYMATTR Value 1k
SYMBOL voltage -256 304 R0
WINDOW 123 0 0 Left 2
WINDOW 39 0 0 Left 2
SYMATTR InstName V1
SYMATTR Value 12V
