Version 4
SHEET 1 6832 5392
WIRE -720 352 -1232 352
WIRE -640 352 -720 352
WIRE -224 352 -640 352
WIRE 736 368 544 368
WIRE 1040 368 736 368
WIRE 1232 368 1040 368
WIRE 0 400 -128 400
WIRE 112 416 64 416
WIRE 176 416 112 416
WIRE 0 432 -32 432
WIRE 272 432 272 352
WIRE -256 464 -272 464
WIRE -128 464 -128 400
WIRE -128 464 -176 464
WIRE 112 480 112 416
WIRE 1104 480 1072 480
WIRE 32 496 32 448
WIRE 208 496 208 480
WIRE 208 496 176 496
WIRE 816 496 672 496
WIRE -224 512 -224 352
WIRE -400 528 -432 528
WIRE -272 528 -272 464
WIRE -272 528 -320 528
WIRE -256 528 -272 528
WIRE 288 528 272 528
WIRE 384 528 368 528
WIRE 1040 528 1040 368
WIRE -128 544 -128 464
WIRE -128 544 -192 544
WIRE 736 544 736 368
WIRE 896 544 848 544
WIRE 992 544 992 480
WIRE 992 544 976 544
WIRE 1008 544 992 544
WIRE -256 560 -272 560
WIRE 384 560 224 560
WIRE 544 560 544 368
WIRE 544 560 512 560
WIRE 672 560 672 496
WIRE 704 560 672 560
WIRE 1104 560 1104 480
WIRE 1104 560 1072 560
WIRE 1136 560 1104 560
WIRE 1152 560 1136 560
WIRE 1328 560 1152 560
WIRE 1440 560 1408 560
WIRE 816 576 816 496
WIRE 816 576 768 576
WIRE 896 576 816 576
WIRE 992 576 976 576
WIRE 1008 576 992 576
WIRE -224 592 -224 576
WIRE -32 592 -32 432
WIRE 112 592 112 544
WIRE 112 592 -32 592
WIRE 384 592 112 592
WIRE 544 592 512 592
WIRE 704 592 544 592
WIRE 1232 592 1232 368
WIRE 1440 592 1440 560
WIRE -576 608 -688 608
WIRE -32 608 -32 592
WIRE 1440 608 1440 592
WIRE -640 624 -640 352
WIRE 384 624 176 624
WIRE 992 624 992 576
WIRE 1040 624 1040 592
WIRE -688 640 -688 608
WIRE -672 640 -688 640
WIRE 736 640 736 608
WIRE 848 640 848 544
WIRE -576 656 -576 608
WIRE -576 656 -608 656
WIRE -400 656 -576 656
WIRE -272 656 -272 560
WIRE -272 656 -320 656
WIRE 544 656 544 592
WIRE 1136 656 1136 560
WIRE -848 672 -1040 672
WIRE -736 672 -768 672
WIRE -672 672 -736 672
WIRE -1232 704 -1232 352
WIRE -1040 704 -1040 672
WIRE -736 704 -736 672
WIRE -32 704 -32 688
WIRE 1232 704 1232 672
WIRE -400 752 -480 752
WIRE -272 752 -272 656
WIRE -272 752 -320 752
WIRE 848 752 848 720
WIRE -160 768 -160 720
WIRE 544 800 544 736
WIRE -1232 816 -1232 784
WIRE -1040 816 -1040 784
WIRE -736 816 -736 784
WIRE -480 864 -480 832
WIRE -160 880 -160 848
FLAG -1040 816 0
FLAG -1232 816 0
FLAG 544 800 0
FLAG 32 384 0
FLAG -32 704 0
FLAG 224 560 0
FLAG 1232 704 0
FLAG 736 640 0
FLAG -1040 672 V_Sensor
FLAG -736 816 0
FLAG -640 688 0
FLAG -224 592 0
FLAG -432 528 0
FLAG -480 864 0
FLAG 1040 624 0
FLAG 848 752 0
FLAG 992 704 0
FLAG 1152 560 VADC
FLAG 1136 736 0
FLAG -160 880 0
FLAG 32 496 VCC_2
FLAG -160 720 VCC_2
FLAG 176 624 VCC_2
FLAG -720 352 +5V
FLAG 1440 656 0
FLAG 272 352 VCC_2
SYMBOL res 528 640 R0
SYMATTR InstName R4
SYMATTR Value 33k
SYMBOL voltage -1232 688 R0
WINDOW 123 0 0 Left 2
WINDOW 39 24 124 Left 2
WINDOW 3 23 -52 Left 2
SYMATTR SpiceLine Rser=1m
SYMATTR Value 5V
SYMATTR InstName V5
SYMBOL voltage -1040 688 R0
WINDOW 123 0 0 Left 2
WINDOW 39 0 0 Left 2
WINDOW 3 -165 160 Left 2
SYMATTR Value PULSE(0 5 0 10m 1m 10u 11.01m)
SYMATTR InstName V6
SYMBOL res -48 592 R0
SYMATTR InstName R5
SYMATTR Value 33k
SYMBOL res 192 512 R180
WINDOW 0 36 76 Left 2
WINDOW 3 36 40 Left 2
SYMATTR InstName R6
SYMATTR Value 100
SYMBOL voltage 1232 576 R0
WINDOW 123 0 0 Left 2
WINDOW 39 24 124 Left 2
SYMATTR SpiceLine Rser=10m
SYMATTR InstName V7
SYMATTR Value 5V
SYMBOL Opamps\\opamp2 736 512 R0
WINDOW 38 14 99 Left 2
SYMATTR SpiceModel OPA2340
SYMATTR InstName U5
SYMATTR Value ""
SYMBOL res -752 656 R90
WINDOW 0 0 56 VBottom 2
WINDOW 3 32 56 VTop 2
SYMATTR InstName R8
SYMATTR Value 15.35k
SYMBOL res -720 800 R180
WINDOW 0 36 76 Left 2
WINDOW 3 36 40 Left 2
SYMATTR InstName R9
SYMATTR Value 33k
SYMBOL res -160 448 R90
WINDOW 0 0 56 VBottom 2
WINDOW 3 32 56 VTop 2
SYMATTR InstName R10
SYMATTR Value 100k
SYMBOL res -304 512 R90
WINDOW 0 0 56 VBottom 2
WINDOW 3 32 56 VTop 2
SYMATTR InstName R11
SYMATTR Value 100k
SYMBOL res -304 640 R90
WINDOW 0 0 56 VBottom 2
WINDOW 3 32 56 VTop 2
SYMATTR InstName R12
SYMATTR Value 100k
SYMBOL res -304 736 R90
WINDOW 0 0 56 VBottom 2
WINDOW 3 32 56 VTop 2
SYMATTR InstName R13
SYMATTR Value 100k
SYMBOL voltage -480 736 R0
WINDOW 123 0 0 Left 2
WINDOW 39 24 124 Left 2
SYMATTR SpiceLine Rser=1m
SYMATTR InstName V8
SYMATTR Value PULSE(0 1.2 0 100u)
SYMBOL Opamps\\opamp2 1040 496 R0
WINDOW 38 29 92 Left 2
SYMATTR SpiceModel OPA2340
SYMATTR InstName U9
SYMATTR Value ""
SYMBOL res 976 496 R270
WINDOW 0 32 56 VTop 2
WINDOW 3 0 56 VBottom 2
SYMATTR InstName R15
SYMATTR Value 12k
SYMBOL res 880 560 R270
WINDOW 0 32 56 VTop 2
WINDOW 3 85 45 VBottom 2
SYMATTR InstName R16
SYMATTR Value 10k
SYMBOL res 880 592 R270
WINDOW 0 -47 49 VTop 2
WINDOW 3 0 56 VBottom 2
SYMATTR InstName R17
SYMATTR Value 10k
SYMBOL res 976 608 R0
SYMATTR InstName R18
SYMATTR Value 12k
SYMBOL voltage 848 624 R0
WINDOW 123 0 0 Left 2
WINDOW 39 24 124 Left 2
SYMATTR SpiceLine Rser=10m
SYMATTR InstName V9
SYMATTR Value 1.2
SYMBOL IL300 448 576 R0
SYMATTR InstName U10
SYMBOL res 1120 640 R0
SYMATTR InstName R20
SYMATTR Value 10k
SYMBOL Opamps\\opamp2 32 480 M180
WINDOW 38 19 98 Left 2
SYMATTR SpiceModel OPA2340
SYMATTR InstName U1
SYMATTR Value ""
SYMBOL voltage -160 752 R0
WINDOW 123 0 0 Left 2
WINDOW 39 0 0 Left 2
WINDOW 3 54 52 Left 2
SYMATTR Value 12V
SYMATTR InstName V1
SYMBOL cap 96 480 R0
SYMATTR InstName C1
SYMATTR Value 22pf
SYMBOL Opamps\\opamp2 -224 480 R0
WINDOW 38 29 92 Left 2
SYMATTR SpiceModel OPA2340
SYMATTR InstName U2
SYMATTR Value ""
SYMBOL Opamps\\opamp2 -640 592 R0
WINDOW 38 29 92 Left 2
SYMATTR SpiceModel OPA2340
SYMATTR InstName U3
SYMATTR Value ""
SYMBOL res 1424 544 R90
WINDOW 0 0 56 VBottom 2
WINDOW 3 32 56 VTop 2
SYMATTR InstName R1
SYMATTR Value 1k
SYMBOL cap 1424 592 R0
SYMATTR InstName C2
SYMATTR Value 10n
SYMBOL npn 208 432 R0
SYMATTR InstName Q1
SYMBOL res 272 544 R270
WINDOW 0 32 56 VTop 2
WINDOW 3 0 56 VBottom 2
SYMATTR InstName R2
SYMATTR Value 100
TEXT 2648 -1456 Left 2 !.SUBCKT MCP6401 1 2 3 4 5\n\n*               | | | | |\n\n*               | | | | Output\n\n*               | | | Negative Supply\n\n*               | | Positive Supply\n\n*               | Inverting Input\n\n*               Non-inverting Input\n\n*\n\n********************************************************************************\n\n* Software License Agreement                                                   *\n\n*                                                                              *\n\n* The software supplied herewith by Microchip Technology Incorporated (the     *\n\n* 'Company') is intended and supplied to you, the Company's customer, for use  *\n\n* soley and exclusively on Microchip products.                                 *\n\n*                                                                              *\n\n* The software is owned by the Company and/or its supplier, and is protected   *\n\n* under applicable copyright laws. All rights are reserved. Any use in         *\n\n* violation of the foregoing restrictions may subject the user to criminal     *\n\n* sanctions under applicable laws, as well as to civil liability for the       *\n\n* breach of the terms and conditions of this license.                          *\n\n*                                                                              *\n\n* THIS SOFTWARE IS PROVIDED IN AN 'AS IS' CONDITION. NO WARRANTIES, WHETHER    *\n\n* EXPRESS, IMPLIED OR STATUTORY, INCLUDING, BUT NOT LIMITED TO, IMPLIED        *\n\n* WARRANTIES OF MERCHANTABILITY AND FITNESS FOR A PARTICULAR PURPOSE APPLY TO  *\n\n* THIS SOFTWARE. THE COMPANY SHALL NOT, IN ANY CIRCUMSTANCES, BE LIABLE FOR    *\n\n* SPECIAL, INCIDENTAL OR CONSEQUENTIAL DAMAGES, FOR ANY REASON WHATSOEVER.     *\n\n********************************************************************************\n\n*\n\n* The following op-amps are covered by this model:\n\n*      MCP6401, MCP6401R, MCP6401U, MCP6402, MCP6404\n\n*\n\n* Date of model creation: 10/10/2010\n\n* Level of Model Creator: 3.0\n\n*\n\n* Revision History:\n\n*      REV A: 10-Oct-10\n\n*       \n\n* Recommendations:\n\n*      Use PSPICE (or SPICE 2G6; other simulators may require translation)\n\n*      For a quick, effective design, use a combination of: data sheet\n\n*            specs, bench testing, and simulations with this macromodel\n\n*      For high impedance circuits, set GMIN=100F in the .OPTIONS statement\n\n*\n\n* Supported:\n\n*      Typical performance for temperature range (-40 to 125) degrees Celsius\n\n*      DC, AC, Transient, and Noise analyses.\n\n*      Most specs, including: offsets, DC PSRR, DC CMRR, input impedance,\n\n*            open loop gain, voltage ranges, supply current, ... , etc.\n\n*      Temperature effects for Ibias, Iquiescent, Iout short circuit \n\n*            current, Vsat on both rails, Slew Rate vs. Temp and P.S.\n\n*\n\n* Not Supported:\n\n*      Some Variation in specs vs. Power Supply Voltage\n\n*      Vos distribution, Ib distribution for Monte Carlo\n\n*      Distortion (detailed non-linear behavior)\n\n*      Some Temperature analysis\n\n*      Process variation\n\n*      Behavior outside normal operating region\n\n*\n\n*\n\n* Input Stage\n\nV10  3 10 -400M\n\nR10 10 11 1.00MEG\n\nR11 10 12 1.00MEG\n\nG10 10 11 10 11 100U\n\nG11 10 12 10 12 100U\n\nC11 11 12 397E-15\n\nC12  1  0 6P\n\nE12 71 14 POLY(6) 20 0 21 0 22 0 23 0 26 0 27 0   4.5M 11.7 11.7 3.6 3.6 1 1\n\nG12 1 0 62 0 1m\n\nG13 1 2 63 0 1u\n\nM12 11 14 15 15 NMI \n\nM14 12 2 15 15 NMI \n\nG14 2 0 62 0 1m\n\nC14  2  0 6P\n\nC13 1 2 3P\n\nI15 15 4 20.0U\n\nV16 16 4 -200M\n\nGD16 16 1 TABLE {V(16,1)} ((-100,-1p)(0,0)(1m,1u)(2m,1m)) \n\nV13 3 13 -200M\n\nGD13 2 13 TABLE {V(2,13)} ((-100,-1p)(0,0)(1m,1u)(2m,1m)) \n\nR71  1  0 20.0E12\n\nR72  2  0 20.0E12\n\nR73  1  2 20.0E12\n\n*\n\n* Noise, PSRR, and CMRR\n\nI20 21 20 423U\n\nD20 20  0 DN1\n\nD21  0 21 DN1\n\nI22 22 23 1N\n\nR22 22 0  1k\n\nR23  0 23 1k\n\nG26  0 26 POLY(2) 3 0 4 0   0.00 -79.4U -100U\n\nR26 26  0 1\n\nG27  0 27 POLY(2) 1 0 2 0  -847U 40U 40U\n\nR27 27  0 1\n\n*\n\n* Open Loop Gain, Slew Rate\n\nG30  0 30 12 11 1\n\nR30 30  0 1.00K\n\nG31 0 31 3 4 3.9\n\nI31 0 31 DC 51.5\n\nR31 31  0 1 TC=3.03M,2.40U\n\nGD31 30 0 TABLE {V(30,31)} ((-100,-1n)(0,0)(1m,0.1)(2m,2))\n\nCD31 31 30 2p\n\nG32 32 0 3 4 2.2\n\nI32 32 0 DC 93\n\nR32 32  0 1 TC=2.22M,-2.72U\n\nGD32 0 30 TABLE {V(30,32)} ((-2m,2)(-1m,0.1)(0,0)(100,-1n))\n\nCD32 32 30 2p\n\nG33  0 33 30 0 1m\n\nR33  33 0 1K\n\nG34  0 34 33 0 0.325\n\nR34  34 0 1K\n\nC34  34 0 50.3U\n\nG37  0 37 34 0 1m\n\nR37  37 0 1K\n\nC37  37 0 63.6P\n\nG38  0 38 37 0 1m\n\nR38  39 0 1K\n\nL38  38 39 79.5U\n\nE38  35 0 38 0 1\n\nG35 33 0 TABLE {V(35,3)} ((-1,-1n)(0,0)(90,1n))(91,1))\n\nG36 33 0 TABLE {V(35,4)} ((-91,-1)((-90,-1n)(0,0)(1,1n))\n\n*\n\n* Output Stage\n\nR80 50 0 100MEG\n\nG50 0 50 57 96 2\n\nR58 57  96 0.50\n\nR57 57  0 1.2K\n\nC58  5  0 2.00P\n\nG57  0 57 POLY(3) 3 0 4 0 35 0 0 312U 416U 833U\n\nGD55 55 57 TABLE {V(55,57)} ((-2m,-1)(-1m,-1m)(0,0)(10,1n))\n\nCD55 55 57 2p\n\nCD56 57 56 2p\n\nGD56 57 56 TABLE {V(57,56)} ((-2m,-1)(-1m,-1m)(0,0)(10,1n))\n\nE55 55  0 POLY(2) 3 0 51 0 2M 1 -54M \n\nE56 56  0 POLY(2) 4 0 52 0 1.2M 1 -50M \n\nR51 51 0 1k\n\nR52 52 0 1k\n\nGD51 50 51 TABLE {V(50,51)} ((-10,-1n)(0,0)(1m,1m)(2m,1))\n\nGD52 50 52 TABLE {V(50,52)}  ((-2m,-1)(-1m,-1m)(0,0)(10,1n))\n\nCD51 50 52 2p\n\nCD52 50 51 2p\n\nG53  3  0 POLY(1) 51 0  -20.0U 1M\n\nG54  0  4 POLY(1) 52 0  -20.0U -1M\n\n*\n\n* Current Limit\n\nG99 96 5 99 0 1\n\nR98 0 98 1 TC=-3.71M,8.17U\n\nG97 0 98 TABLE { V(96,5) } ((-12.0,-7.00M)(-1.00M,-6.93M)(0,0)(1.00M,6.93M)(12.0,7.00M))\n\nE97 99 0 VALUE { V(98)*((V(3)-V(4))*428M + 142M)}\n\nD98 4 5 DESD\n\nD99 5 3 DESD\n\n*\n\n* Temperature / Voltage Sensitive IQuiscent\n\nR61 0 61 1 TC=2.24M,3.12U\n\nG61 3 4 61 0 1\n\nG60 0 61 TABLE {V(3,4)} \n\n+ ((0,0)(800M,440N)(850M,3.00U)(1.3,40.0U)\n\n+ (1.4,42.0U)(5.00,46.0U)(7.00,50.0U))\n\n*\n\n* Temperature Sensitive offset voltage\n\nI73 0 70 DC 1uA\n\nR74 0 70 1 TC=2.00\n\nE75 1 71 70 0 1 \n\n*\n\n* Temp Sensistive IBias\n\nI62 0 62 DC 1uA\n\nR62 0 62 REXP  1.1m\n\n*\n\n* Temp Sensistive Offset IBias\n\nI63 0 63 DC 1uA\n\nR63 0 63 1.1 TC=30.4M,454U\n\n*\n\n* Models\n\n.MODEL NMI NMOS(L=2.00U W=50.0U KP=20.0U LEVEL=1 )\n\n.MODEL DESD  D   N=1 IS=1.00E-15\n\n.MODEL DN1 D   IS=1P KF=146E-18 AF=1\n\n.MODEL REXP  RES TCE= 6.6\n\n.ENDS MCP6401
TEXT 1880 -1456 Left 2 !*****\n* (c) ON SEMICONDUCTOR\n* Models developed and under copyright by:\n* ON SEMICONDUCTOR \n \n* ============================================================\n* | Legal Notice: This material is intended for free  \n* | software support. The file may be copied and distributed. \n* | However,reselling the material is illegal.\n* ============================================================\n \n* ============================================================      \n* | LM258, LM358, LM358A, LM2904, LM2904A, LM2904V, NCV2904\n* |                  OP-AMP MACRO-MODEL\n* |            Designed in pSpice Version 9.2\n* |\n* | The content of this model is subject to change\n* | without notice and may not be modified or altered\n* | without permission from ON Semiconductor. This model\n* | has been carefully checked and is believed to be\n* | accurate, however ON Semiconductor does not assume \n* | liability for the use of this model or the results \n* | obtained from using it.\n* ============================================================\n \n* ============================================================\n* Features: - True Differential Input Stage\n*           - Single Supply Operation: 3.0 V to 32 V\n*           - Low Input Bias Currents\n*           - Internally Compensated\n*           - Common Mode Range Extends to Negative Supply\n*           - Single and Split Supply Operation\n* ============================================================\n \n* $Author: Vallabh Chilakapati $\n* $Date: 6 Aug 2006 $\n \n* NOTE: - Noise is not modeled.\n*       - Temperature is not modeled.\n*       - PSR is not modeled.\n*       - Model is for single device only.  Simulated supply current is 1/2 of\n*         total package current.\n \n* Connections:\n*                   Non-Inverting Input\n*                   |   Inverting Input\n*                   |   |   +ve Voltage Supply\n*                   |   |  |   -ve Voltage Supply\n*                   |   |  |   |   Output\n*                   |   |  |   |   |\n.SUBCKT LM258_ON    1   2  11  12  24\n \n***** Input Stage *****\nQ_Q1            4 5 6           QPNP1    \nQ_Q2            7 8 9           QPNP2\nI_I1            111 10          DC 1m\nR_RC1           4 12            95.49 \nR_RC2           7 12            95.49\nR_RE1           10 6            43.79 \nR_RE2           10 9            43.79\nV_Vio           2 8             0Vdc\nE_E4            1 5 16 14       1\nE_EVcc          111 0 11 0      1\nG_Vcc           0 11            poly(1)         11 0            0.556m 4.8u\n \n***** Gain Stage & Frequency Response Stage *****\nR_R3            13 12           1k  \nR_R4            111 13          100k  \nE_Eref          14 0 13 0       1\nG_G1            14 15 7 4       0.01047\nR_Rc            14 15           9.549Meg \nC_Cc            14 15           1.667n \n \n***** Output Stage *****\nE_E1            22 14 15 14     1\nV_F1            23 24           0\nF_F1            11 0 V_F1       1\nR_Rout          22 23           13\n \n***** Common Mode Rejection *****\nR_R1            3 1             1Meg\nR_R2            2 3             1Meg\nG_G2            14 16 3 14      5.6234n\nR_Rcmr          17 16           10k\nL_Lcmr          14 17           1.59H \n \n***** Output Voltage Limiting *****\nD_D1            15 18           D10D1\nD_D2            19 15           D10D1 \nV_Voh           111 18          2.183\nV_Vol           19 12           0.639\n \n***** Output Current Limiting *****\nD_D3            15 21           D10D1 \nD_D4            20 15           D10D1 \nV_V3            21 23           -0.207\nV_V4            23 20           -0.467\n \n.model QPNP1    PNP(Bf=10841.7)\n.model QPNP2    PNP(Bf=11741.7)\n.MODEL D10D1 D IS=6E-16 RS=1.000E-3 VJ=.75 BV=100E6\n.ENDS
TEXT 3760 -1456 Left 2 !* OPA350 SPICE Macro-model              3/31/99, Rev. B   by Marek Lis\n\n* Rev. A  12/18/98,  by Marek Lis\n\n* REV. B  23 DEC 1998 NEIL ALBAUGH; REVISED CONNECTION NAMES TO MATCH SYMBOL\n\n* Rev. C  3/31/99,  by Marek Lis: added voltage and current noise (1/f noise is NOT modeled.)\n\n* REV. D  1 APR 1999 NEIL ALBAUGH; REVISED CONNECTION NAMES TO MATCH SYMBOL\n\n*\n\n*\n\n*\n\n*\n\n*\n\n* Copyright 1997 by Burr-Brown Corporation\n\n\n*\n\n\n*                non-inverting input\n\n\n*                |  inverting input\n\n\n*                |  |  positive supply\n\n\n*                |  |  |   negative supply\n\n\n*                |  |  |   |   output\n\n\n*                |  |  |   |   |\n\n\n.SUBCKT OPA350   +  -  V+  V-  OUT\n\n\n* INPUT STAGE\n\n\n*\n\n\ni1 V+ 5 400u\n\n\nm7 550 vswitch 5 5 pix l=2u w=25u m=26\n\n\nm8 550 550 V- V- nix l=2u w=25u m=26\n\n\nm9 553a 550 V- V- nix l=2u w=25u m=26\n\n\nm9c 66 nvsat 553a V- nix l=2u w=25u m=26\n\n\nVpvsat V+ vswitch DC 1.8\n\n\nVnvsat nvsat V- DC 1.37\n\n\niin1 + 98 .5p\n\n\niin2 - 98 .5p\n\n\nd3 5 V+ dx\n\n\nd4 V- 66 dx\n\n\nd5 - V+ dx\n\n\nd6 + V+ dx\n\n\nd7 V- - dx\n\n\nd8 V- + dx\n\n\nrinp 7 7a 500\n\n\nrinn - 2a 500\n\n\nm1 33 2a 66 V- nix l=2u w=25u m=13\n\n\nm2 4 7a 66 V- nix l=2u w=25u m=13\n\n\nm3 8 2a 5 5 pix l=2u w=25u m=13\n\n\nm4 9 7a 5 5 pix l=2u w=25u m=13\n\n\neos 7 + poly(1) 25 98 0 0\n\n\nios - + 0p\n\n\nr1 V+ 33x 4.833k\n\n\nr2 V+ 4x 4.833k\n\n\nr3 8x V- 4.833k\n\n\nr4 9x V- 4.833k\n\n\nvr1 33 33x DC 2\n\n\nvr2 4 4x DC 2\n\n\nvr3 8x 8 DC 2\n\n\nvr4 9x 9 DC 2\n\n\ni1a V+ V- 2464u\n\n\n*\n\n\n* GAIN STAGE\n\n\n*\n\n\neref 98 0 poly(2) V+ 0 V- 0 0 0.5 0.5\n\n\ng1 98 21 poly(2) 4 33 9 8 0 145u 145u\n\n\nrg 21 98 2.3e6\n\n\ncc 21 6c 10.6pF\n\n\nrcc 6c OUT 2.4k\n\n\nd1 21 22 dx\n\n\nd2 23 21 dx\n\n\nv1 V+ 22 1.37\n\n\nv2 23 V- 1.37\n\n\n\n\n*\n\n\n* COMMON MODE GAIN STAGE\n\n\n*\n\n\necm 24 98 poly(2) + 98 - 98 0 0.5 0.5\n\n\nr5 24 25 1e6\n\n\nr6 25 98 10k\n\n\nc1 24 25 0.75p\n\n\n*\n\n\n* OUTPUT STAGE\n\n\n*\n\n\nisy V+ V- 540.4u\n\n\ngsy V+ V- poly(1) V+ V- -3.334e-4 6.667e-5\n\n\nep V+ 39 poly(1) 98 21 0.78925 1\n\n\nen 38 V- poly(1) 21 98 0.78925 1\n\n\nvh OUT 6h DC -2.4e-2\n\n\nvl 6l OUT DC -2.4e-2 \n\n\nm113 6h 39 V+ V+ pox l=1.5u w=1500u m=12\n\n\nm114 6l 38 V- V- nox l=1.5u w=1500u m=12\n\n\nc15 OUT 39 15p\n\n\nc16 OUT 38 15p\n\n\n.model dx d(rs=1 cjo=0.1p)\n\n\n.model nix nmos(vto=0.75 kp=205.5u rd=1 rs=1 rg=1 rb=1 cgso=4e-9\n\n\n+cgdo=4e-9 cgbo=16.667e-9 cbs=2.34e-13 cbd=2.34e-13)\n\n\n.model nox nmos(vto=0.75 kp=195u rd=.5 rs=.5 rg=1 rb=1 cgso=66.667e-12\n\n\n+cgdo=66.667e-12 cgbo=125e-9 cbs=2.34e-13 cbd=2.34e-13)\n\n\n.model pix pmos(vto=-0.75 kp=205.5u rd=1 rs=1 rg=1 rb=1 cgso=4e-9\n\n\n+cgdo=4e-9 cgbo=16.667e-9 cbs=2.34e-13 cbd=2.34e-13)\n\n\n.model pox pmos(vto=-0.75 kp=195u rd=.5 rs=.5 rg=1 rb=1 cgso=66.667e-12\n\n\n+cgdo=66.667e-12 cgbo=125e-9 cbs=2.34e-13 cbd=2.34e-13)\n\n\n.ENDS OPA350
TEXT 4864 -1464 Left 2 !* OPA2340\n\n*****************************************************************************\n\n* (C) Copyright 2011 Texas Instruments Incorporated. All rights reserved.                                            \n\n*****************************************************************************\n\n** This model is designed as an aid for customers of Texas Instruments.\n\n** TI and its licensors and suppliers make no warranties, either expressed\n\n** or implied, with respect to this model, including the warranties of \n\n** merchantability or fitness for a particular purpose.  The model is\n\n** provided solely on an "as is" basis.  The entire risk as to its quality\n\n** and performance is with the customer.\n\n*****************************************************************************\n\n*\n\n* This model is subject to change without notice. Texas Instruments\n\n* Incorporated is not responsible for updating this model.\n\n*\n\n*****************************************************************************\n\n*\n\n** Released by: Analog eLab Design Center, Texas Instruments Inc.\n\n* Part: OPA2340\n\n* Date: 31MAY2011\n\n* Model Type: ALL IN ONE\n\n* Simulator: PSPICE\n\n* Simulator Version: 16.0.0.p.001\n\n* EVM Order Number: N/A\n\n* EVM Users Guide: N/A\n\n* Datasheet: SBOS073B?SEPTEMBER 1997?REVISED NOVEMBER 2007\n\n*\n\n* Model Version: 1.0\n\n*\n\n*****************************************************************************\n\n*\n\n* Updates:\n\n*\n\n* Version 1.0 : \n\n* Release to Web\n\n*\n\n*****************************************************************************\n\n*\n\n* THIS MODEL IS APPLICABLE TO OPA340, OPA2340, OPA4340\n\n*                non-inverting input\n\n\n*                |  inverting input\n\n\n*                |  |  positive supply\n\n\n*                |  |  |   negative supply\n\n\n*                |  |  |   |   output\n\n\n*                |  |  |   |   |\n\n.SUBCKT OPA2340   +  -  V+  V-  OUT\n\n\n* INPUT STAGE\n\n*\n\ni1 V+ 5 150u\n\nm7 550 vswitch 5 5 pix l=6u w=25u m=4\n\nm8 550 550 V- V- nix l=6u w=25u m=4\n\nm9 553a 550 V- V- nix l=6u w=25u m=4\n\nm9c 66 nvsat 553a V- nix l=6u w=25u m=4\n\nVpvsat V+ vswitch DC 1.3\n\nVnvsat nvsat V- DC 1.37\n\niin1 + 98 .2p\n\niin2 - 98 .2p\n\nd3 5 V+ dx\n\nd4 V- 66 dx\n\nd5 - V+ dx\n\nd6 + V+ dx\n\nd7 V- - dx\n\nd8 V- + dx\n\nm1 33 - 66 V- nix l=6u w=25u\n\nm2 4 7 66 V- nix l=6u w=25u\n\nm3 8 - 5 5 pix l=6u w=25u\n\nm4 9 7 5 5 pix l=6u w=25u\n\neos 7 + poly(1) 25 98 0 0\n\nios - + 0p\n\nr1 V+ 33 4.833k\n\nr2 V+ 4 4.833k\n\nr3 8 V- 4.833k\n\nr4 9 V- 4.833k\n\n*\n\n* GAIN STAGE\n\n*\n\neref 98 0 poly(2) V+ 0 V- 0 0 0.5 0.5\n\ng1 98 21 poly(2) 4 33 9 8 0 145u 145u\n\nrg 21 98 18.078e6\n\ncc 21 OUT 10.5p\n\nd1 21 22 dx\n\nd2 23 21 dx\n\nv1 V+ 22 1.37\n\nv2 23 V- 1.37\n\n*\n\n* COMMON MODE GAIN STAGE\n\n*\n\necm 24 98 poly(2) + 98 - 98 0 0.5 0.5\n\nr5 24 25 1e6\n\nr6 25 98 10k\n\nc1 24 25 0.75p\n\n*\n\n* OUTPUT STAGE\n\n*\n\nisy V+ V- 450.4u\n\ngsy V+ V- poly(1) V+ V- -3.334e-4 6.667e-5\n\nep V+ 39 poly(1) 98 21 0.78925 1\n\nen 38 V- poly(1) 21 98 0.78925 1\n\nvh OUT 6h DC 1e-2\n\nvl 6l OUT DC 1e-2 \n\nm113 6h 39 V+ V+ pox l=1.5u w=1500u\n\nm114 6l 38 V- V- nox l=1.5u w=1500u\n\nc15 OUT 39 50p\n\nc16 OUT 38 50p\n\n.model dx d(rs=1 cjo=0.1p)\n\n.model nix nmos(vto=0.75 kp=205.5u rd=1 rs=1 rg=1 rb=1 cgso=4e-9\n\n+cgdo=4e-9 cgbo=16.667e-9 cbs=2.34e-13 cbd=2.34e-13)\n\n.model nox nmos(vto=0.75 kp=195u rd=.5 rs=.5 rg=1 rb=1 cgso=66.667e-12\n\n+cgdo=66.667e-12 cgbo=125e-9 cbs=2.34e-13 cbd=2.34e-13)\n\n.model pix pmos(vto=-0.75 kp=205.5u rd=1 rs=1 rg=1 rb=1 cgso=4e-9\n\n+cgdo=4e-9 cgbo=16.667e-9 cbs=2.34e-13 cbd=2.34e-13)\n\n.model pox pmos(vto=-0.75 kp=195u rd=.5 rs=.5 rg=1 rb=1 cgso=66.667e-12\n\n+cgdo=66.667e-12 cgbo=125e-9 cbs=2.34e-13 cbd=2.34e-13)\n\n.ENDS OPA2340
TEXT -672 272 Left 2 !.tran 40m startup
