Version 4
SHEET 1 980 772
WIRE 64 128 16 128
WIRE 192 128 144 128
WIRE 720 144 720 112
WIRE 800 144 720 144
WIRE 720 192 720 144
WIRE 800 192 800 144
WIRE 16 208 16 128
WIRE 16 208 -96 208
WIRE 64 208 16 208
WIRE 192 208 192 128
WIRE 192 208 144 208
WIRE 240 208 192 208
WIRE 400 208 240 208
WIRE -96 256 -96 208
WIRE 400 256 400 208
WIRE 240 272 240 208
WIRE 720 320 720 272
WIRE 800 320 800 272
WIRE 800 320 720 320
WIRE 848 320 800 320
WIRE 960 320 912 320
WIRE 720 368 720 320
WIRE -96 384 -96 336
WIRE 240 384 240 336
WIRE 400 384 400 336
WIRE 720 480 720 432
FLAG -96 384 0
FLAG 240 384 0
FLAG 400 384 0
FLAG 720 480 0
FLAG 960 320 0
FLAG 720 112 supply
FLAG -96 208 supply
SYMBOL res 160 112 R90
WINDOW 0 0 56 VBottom 2
WINDOW 3 32 56 VTop 2
SYMATTR InstName R1
SYMBOL ind 160 192 R90
WINDOW 0 5 56 VBottom 2
WINDOW 3 32 56 VTop 2
SYMATTR InstName L1
SYMBOL cap 224 272 R0
SYMATTR InstName C1
SYMBOL source-I 400 336 R180
WINDOW 0 29 73 Left 2
WINDOW 3 29 17 Left 2
SYMATTR InstName I1
SYMBOL source-V -96 240 R0
WINDOW 123 0 0 Left 2
WINDOW 39 28 109 Left 2
SYMATTR InstName V1
SYMATTR Value ""
SYMATTR SpiceLine Rser=10
SYMBOL OpAmp.Add\\1pole 720 400 R0
SYMATTR InstName U1
SYMBOL res 816 288 R180
WINDOW 0 36 76 Left 2
WINDOW 3 36 40 Left 2
SYMATTR InstName R2
SYMBOL ind 736 288 R180
WINDOW 0 36 80 Left 2
WINDOW 3 36 40 Left 2
SYMATTR InstName L2
SYMBOL cap 848 336 R270
WINDOW 0 32 32 VTop 2
WINDOW 3 0 32 VBottom 2
SYMATTR InstName C2
TEXT -264 -96 Left 2 ;Tipp von H. Sapotta bei LC- Enkopplung von Versorgungsspannungen:\nR parallel zur Spule --> Dimensionierung auf aperiodischen Grenzfall
RECTANGLE Normal 240 176 -32 -16 2
