Version 4
SHEET 1 880 680
WIRE 192 -80 176 -80
WIRE 224 -80 192 -80
WIRE 336 -80 304 -80
WIRE 368 -80 336 -80
WIRE -64 32 -80 32
WIRE -48 32 -64 32
WIRE 48 32 32 32
WIRE 64 32 48 32
WIRE 176 32 176 -80
WIRE 176 32 128 32
WIRE 240 32 176 32
WIRE 336 32 304 32
WIRE 352 32 336 32
WIRE -80 48 -80 32
WIRE 176 48 176 32
WIRE 352 48 352 32
WIRE -80 144 -80 128
WIRE 176 144 176 112
WIRE 352 144 352 128
FLAG 176 144 0
FLAG 368 0 0
FLAG 192 -80 d
FLAG -80 144 0
FLAG 352 144 0
FLAG 336 32 out
FLAG 48 32 a
FLAG -64 32 1
FLAG 336 -80 crtl
SYMBOL diode 160 48 R0
SYMATTR InstName D1
SYMATTR Value my_d
SYMBOL res 320 -96 R90
WINDOW 0 7 56 VBottom 2
WINDOW 3 25 56 VTop 2
SYMATTR InstName RV
SYMATTR Value 10k
SYMBOL source-V 368 -96 R0
SYMATTR InstName V1
SYMATTR Value 5
SYMBOL source-V -80 32 R0
WINDOW 0 34 49 Left 2
WINDOW 3 24 111 Left 2
WINDOW 123 24 80 Left 2
WINDOW 39 0 0 Left 2
SYMATTR InstName Vin
SYMATTR Value SINE(0 1 1k)
SYMATTR Value2 AC 1
SYMBOL res -64 48 R270
WINDOW 0 25 56 VTop 2
WINDOW 3 7 56 VBottom 2
SYMATTR InstName R1
SYMATTR Value 1k
SYMBOL Elko 128 48 M270
WINDOW 0 32 32 VTop 2
WINDOW 3 0 32 VBottom 2
SYMATTR InstName C1
SYMATTR Value 33µ
SYMBOL Elko 240 16 M90
WINDOW 0 0 32 VBottom 2
WINDOW 3 32 32 VTop 2
SYMATTR InstName C2
SYMATTR Value 33µ
SYMBOL res 336 32 R0
SYMATTR InstName RL
SYMATTR Value 10k
TEXT 8 208 Left 2 !;op
TEXT 8 176 Left 2 !.model my_d d (IS=4.e-13 n=1.3)
TEXT 152 -48 Right 2 !;ac oct 10 10m 10k
TEXT 2 250 Left 2 !.tran 2m
