Version 4
SHEET 1 880 680
WIRE 80 -48 0 -48
WIRE 192 -48 160 -48
WIRE 192 16 192 -48
WIRE 192 16 112 16
WIRE 240 16 192 16
WIRE 304 16 240 16
WIRE 368 16 304 16
WIRE 0 112 0 -48
WIRE 0 112 -96 112
WIRE 112 128 112 96
WIRE 160 128 112 128
WIRE -192 144 -224 144
WIRE -128 144 -192 144
WIRE -96 144 -96 112
WIRE -96 144 -128 144
WIRE -48 144 -96 144
WIRE 240 144 240 16
WIRE 240 144 224 144
WIRE 0 160 0 112
WIRE 16 160 0 160
WIRE 160 160 96 160
WIRE -224 176 -224 144
WIRE -128 176 -128 144
WIRE -48 176 -48 144
WIRE 112 192 112 128
WIRE -224 288 -224 256
WIRE -128 288 -128 240
WIRE -48 288 -48 256
WIRE 112 288 112 272
FLAG 304 16 out
FLAG 112 288 0
FLAG -48 288 0
FLAG -128 288 0
FLAG -224 288 0
FLAG -192 144 a
SYMBOL res 96 176 R0
SYMATTR InstName R1
SYMATTR Value 1k
SYMBOL res 96 0 R0
SYMATTR InstName R2
SYMATTR Value 1k
SYMBOL res 176 -64 R90
WINDOW 0 7 56 VBottom 2
WINDOW 3 25 56 VTop 2
SYMATTR InstName R3
SYMATTR Value 1.8k
SYMBOL ind -64 160 R0
SYMATTR InstName L1
SYMATTR Value 1m
SYMBOL cap -144 176 R0
WINDOW 3 -47 145 Left 2
SYMATTR InstName C1
SYMATTR Value 10n
SYMBOL res -240 160 R0
SYMATTR InstName R4
SYMATTR Value 2k
SYMBOL EIT_Semiconductors\\op_3 192 144 R0
SYMATTR InstName U1
SYMBOL Function-V 112 160 R90
WINDOW 0 -27 56 VBottom 2
WINDOW 3 177 77 VTop 2
SYMATTR InstName B1
SYMATTR Value V=10u*white(time*11.e+6)
TEXT -208 -32 Left 2 !.tran 30m
