Version 4
SHEET 1 880 680
WIRE 256 0 208 0
WIRE 256 112 256 80
WIRE 288 112 256 112
WIRE 304 112 288 112
WIRE 384 112 368 112
WIRE 384 128 384 112
WIRE 0 160 -32 160
WIRE 160 160 144 160
WIRE 176 160 160 160
WIRE 192 160 176 160
WIRE -32 192 -32 160
WIRE 160 192 160 160
WIRE 256 224 256 208
WIRE 384 224 384 208
WIRE -32 288 -32 272
FLAG 256 224 0
FLAG 160 272 0
FLAG 384 224 0
FLAG -32 288 0
FLAG 176 160 b
FLAG 288 112 e
FLAG 384 112 out
SYMBOL EIT_Semiconductors\\pnp_o 192 112 R0
SYMATTR InstName Q1
SYMATTR Value bc557B
SYMBOL res 144 176 R0
SYMATTR InstName RB
SYMATTR Value 560k
SYMBOL res 240 -16 R0
SYMATTR InstName RE
SYMATTR Value 2.2k
SYMBOL res 368 112 R0
SYMATTR InstName RL
SYMATTR Value 3.3k
SYMBOL res -16 176 R270
WINDOW 0 25 56 VTop 2
WINDOW 3 7 56 VBottom 2
SYMATTR InstName R1
SYMATTR Value 100k
SYMBOL cap 80 176 R270
WINDOW 0 32 32 VTop 2
WINDOW 3 0 32 VBottom 2
SYMATTR InstName C1
SYMATTR Value 10n
SYMBOL Elko 304 128 R270
WINDOW 0 32 32 VTop 2
WINDOW 3 0 32 VBottom 2
SYMATTR InstName C2
SYMATTR Value 0.84µ
SYMBOL source-Vmarker 208 0 R0
SYMATTR InstName U1
SYMBOL source-V -32 176 R0
SYMATTR InstName V1
SYMATTR Value AC 1
TEXT -24 304 Left 2 !.model pnpx pnp (IS=1e-15 BF=200 VAF=50)
TEXT -8 16 Left 2 !;op
TEXT -24 56 Left 2 !.ac oct 10 1 10k
