Version 4
SHEET 1 880 680
WIRE 144 -16 -48 -16
WIRE 240 -16 144 -16
WIRE 240 16 240 -16
WIRE 128 32 112 32
WIRE 208 32 192 32
WIRE 112 112 112 32
WIRE 208 112 208 32
WIRE 208 112 192 112
WIRE 240 112 240 96
WIRE 240 112 208 112
WIRE 240 128 240 112
WIRE 304 128 240 128
WIRE 320 128 304 128
WIRE 400 128 384 128
WIRE 240 144 240 128
WIRE 400 160 400 128
WIRE -96 192 -128 192
WIRE -48 192 -96 192
WIRE 112 192 112 112
WIRE 112 192 96 192
WIRE 128 192 112 192
WIRE 160 192 128 192
WIRE 176 192 160 192
WIRE 128 208 128 192
WIRE 240 256 240 240
WIRE 400 256 400 240
WIRE -128 288 -128 272
WIRE 128 288 128 272
WIRE -48 352 -80 352
WIRE 208 352 -48 352
WIRE 208 368 208 352
WIRE 176 400 144 400
WIRE 80 464 80 400
WIRE 176 464 176 400
WIRE 176 464 160 464
WIRE 208 464 208 448
WIRE 208 464 176 464
WIRE 208 480 208 464
WIRE 272 480 208 480
WIRE 288 480 272 480
WIRE 368 480 352 480
WIRE 208 496 208 480
WIRE 368 512 368 480
WIRE -128 544 -160 544
WIRE -80 544 -128 544
WIRE 80 544 80 464
WIRE 80 544 64 544
WIRE 128 544 80 544
WIRE 144 544 128 544
WIRE 208 608 208 592
WIRE 368 608 368 592
FLAG 240 256 0
FLAG 304 128 c
FLAG 160 192 b
FLAG 144 -16 plus
FLAG 400 256 0
FLAG 400 128 out
FLAG -96 192 1
FLAG -128 288 0
FLAG 208 608 0
FLAG 272 480 c_2
FLAG 128 544 b_2
FLAG -48 352 plus
FLAG 368 608 0
FLAG 368 480 out_2
FLAG -128 544 1
FLAG 128 288 0
SYMBOL EIT_Semiconductors\\npn 176 144 R0
SYMATTR InstName Q1
SYMATTR Value mein_q
SYMBOL source-Vmarker -48 -16 R0
SYMATTR InstName U1
SYMBOL res 224 0 R0
SYMATTR InstName RC
SYMATTR Value 10k
SYMBOL source-V -128 176 R0
WINDOW 123 28 109 Left 2
WINDOW 39 0 0 Left 2
SYMATTR Value2 AC 1
SYMATTR InstName v1
SYMATTR Value SINE(0 1m 1k)
SYMBOL cap 32 208 R270
WINDOW 0 32 32 VTop 2
WINDOW 3 0 32 VBottom 2
SYMATTR InstName C1
SYMATTR Value 100n
SYMBOL cap 320 144 R270
WINDOW 0 32 32 VTop 2
WINDOW 3 0 32 VBottom 2
SYMATTR InstName C2
SYMATTR Value 100n
SYMBOL res 384 144 R0
SYMATTR InstName RL
SYMATTR Value 20k
SYMBOL res 208 96 R90
WINDOW 0 7 56 VBottom 2
WINDOW 3 25 56 VTop 2
SYMATTR InstName RB
SYMATTR Value 500k
SYMBOL res -64 208 R270
WINDOW 0 25 56 VTop 2
WINDOW 3 7 56 VBottom 2
SYMATTR InstName R1
SYMATTR Value 10k
SYMBOL EIT_Semiconductors\\npn 144 496 R0
SYMATTR InstName Q2
SYMATTR Value mein_q
SYMBOL res 192 352 R0
SYMATTR InstName RC1
SYMATTR Value 10k
SYMBOL cap 0 560 R270
WINDOW 0 32 32 VTop 2
WINDOW 3 0 32 VBottom 2
SYMATTR InstName C3
SYMATTR Value 100n
SYMBOL cap 288 496 R270
WINDOW 0 32 32 VTop 2
WINDOW 3 0 32 VBottom 2
SYMATTR InstName C4
SYMATTR Value 100n
SYMBOL res 352 496 R0
SYMATTR InstName RL1
SYMATTR Value 20k
SYMBOL res 176 448 R90
WINDOW 0 7 58 VBottom 2
WINDOW 3 25 56 VTop 2
SYMATTR InstName RB1
SYMATTR Value 500k
SYMBOL res -96 560 R270
WINDOW 0 25 56 VTop 2
WINDOW 3 7 56 VBottom 2
SYMATTR InstName R2
SYMATTR Value 10k
SYMBOL cap 112 208 R0
SYMATTR InstName C5
SYMATTR Value 30p
SYMBOL cap 192 16 R90
WINDOW 0 0 32 VBottom 2
WINDOW 3 32 32 VTop 2
SYMATTR InstName C6
SYMATTR Value 3p
SYMBOL cap 144 384 R90
WINDOW 0 0 32 VBottom 2
WINDOW 3 -19 69 VTop 2
SYMATTR InstName C7
SYMATTR Value 15p
TEXT -112 80 Left 2 !;op
TEXT -136 128 Left 2 !;tran 2m
TEXT 8 320 Left 2 !.model mein_q npn (is={is} BF={bf} VAF=80)
TEXT 320 40 Left 2 !.param is=3.3f bf=200
TEXT -136 104 Left 2 !.ac oct 10 1 10G
TEXT -168 56 Left 2 !;dc oct param bf 1 20000 10
