Version 4
SHEET 1 880 680
WIRE 128 32 -48 32
WIRE 192 32 128 32
WIRE 240 32 192 32
WIRE 128 80 128 32
WIRE 240 128 240 112
WIRE 304 128 240 128
WIRE 320 128 304 128
WIRE 400 128 384 128
WIRE 240 144 240 128
WIRE 400 160 400 128
WIRE -96 192 -128 192
WIRE -48 192 -96 192
WIRE 128 192 128 160
WIRE 128 192 96 192
WIRE 160 192 128 192
WIRE 176 192 160 192
WIRE 240 256 240 240
WIRE 400 256 400 240
WIRE -128 288 -128 272
FLAG 240 256 0
FLAG 304 128 c
FLAG 160 192 b
FLAG 192 32 plus
FLAG 400 256 0
FLAG 400 128 out
FLAG -96 192 1
FLAG -128 288 0
SYMBOL EIT_Semiconductors\\npn 176 144 R0
SYMATTR InstName Q1
SYMATTR Value mein_q
SYMBOL source-Vmarker -48 32 R0
SYMATTR InstName U1
SYMBOL res 224 16 R0
SYMATTR InstName RC
SYMATTR Value 1k
SYMBOL source-V -128 176 R0
WINDOW 123 28 109 Left 2
WINDOW 39 0 0 Left 2
SYMATTR Value2 AC 1
SYMATTR InstName v1
SYMATTR Value SINE(0 1m 1k)
SYMBOL cap 32 208 R270
WINDOW 0 32 32 VTop 2
WINDOW 3 0 32 VBottom 2
SYMATTR InstName C1
SYMATTR Value 1µ
SYMBOL cap 320 144 R270
WINDOW 0 32 32 VTop 2
WINDOW 3 0 32 VBottom 2
SYMATTR InstName C2
SYMATTR Value 1µ
SYMBOL res 384 144 R0
SYMATTR InstName RL
SYMATTR Value 2k
SYMBOL res 112 64 R0
SYMATTR InstName RB
SYMATTR Value 500k
SYMBOL res -64 208 R270
WINDOW 0 25 56 VTop 2
WINDOW 3 7 56 VBottom 2
SYMATTR InstName R1
SYMATTR Value 1k
TEXT -112 80 Left 2 !;op
TEXT -136 128 Left 2 !;tran 2m
TEXT 24 296 Left 2 !.model mein_q npn (is={is} BF=200 VAF=80)
TEXT 320 40 Left 2 !.param is=3f
TEXT 248 8 Left 2 !;op
TEXT -136 104 Left 2 !.ac oct 10 1 10G
