Version 4
SHEET 1 880 680
WIRE 128 32 -48 32
WIRE 192 32 128 32
WIRE 240 32 192 32
WIRE 128 80 128 32
WIRE 240 128 240 112
WIRE 304 128 240 128
WIRE 320 128 304 128
WIRE 400 128 384 128
WIRE 240 144 240 128
WIRE 400 160 400 128
WIRE -48 192 -80 192
WIRE 32 192 -48 192
WIRE 128 192 128 160
WIRE 128 192 96 192
WIRE 160 192 128 192
WIRE 176 192 160 192
WIRE 240 256 240 240
WIRE 400 256 400 240
WIRE -80 288 -80 272
FLAG 240 256 0
FLAG 304 128 c
FLAG 160 192 b
FLAG 192 32 plus
FLAG 400 256 0
FLAG 400 128 out
FLAG -48 192 1
FLAG -80 288 0
SYMBOL EIT_Semiconductors\\npn 176 144 R0
SYMATTR InstName Q1
SYMATTR Value mein_q
SYMBOL source-Vmarker -48 32 R0
SYMATTR InstName U1
SYMBOL res 224 16 R0
SYMATTR InstName RC
SYMATTR Value 2k
SYMBOL source-I 128 160 R180
WINDOW 0 -51 62 Left 2
WINDOW 3 -69 37 Left 2
SYMATTR InstName I1
SYMATTR Value 10µ
SYMBOL source-V -80 176 R0
WINDOW 123 0 0 Left 2
WINDOW 39 0 0 Left 2
SYMATTR InstName v1
SYMATTR Value SINE(0 1m 1k)
SYMBOL cap 32 208 R270
WINDOW 0 32 32 VTop 2
WINDOW 3 0 32 VBottom 2
SYMATTR InstName C1
SYMATTR Value 100µ
SYMBOL cap 320 144 R270
WINDOW 0 32 32 VTop 2
WINDOW 3 0 32 VBottom 2
SYMATTR InstName C2
SYMATTR Value 100µ
SYMBOL res 384 144 R0
SYMATTR InstName RL
SYMATTR Value 10k
TEXT -112 80 Left 2 !;op
TEXT -136 128 Left 2 !;tran 2m
TEXT 128 288 Left 2 !.model mein_q npn (BF=200)
TEXT -40 360 Left 2 !.dc npn mein_q bf 50 300 50
TEXT -40 400 Left 2 ;nichtempfehlenswertes .dc kommando \nwird vom .cd menü nicht unterstützt
