Version 4
SHEET 1 880 680
WIRE 16 32 -48 32
WIRE 192 32 16 32
WIRE 240 32 192 32
WIRE 16 80 16 32
WIRE 240 128 240 112
WIRE 304 128 240 128
WIRE 320 128 304 128
WIRE 400 128 384 128
WIRE 240 144 240 128
WIRE 400 160 400 128
WIRE 160 192 80 192
WIRE 176 192 160 192
WIRE 240 256 240 240
WIRE 400 256 400 240
WIRE 16 272 16 160
WIRE 48 272 16 272
WIRE 80 272 48 272
WIRE 128 272 80 272
WIRE 16 288 16 272
WIRE 128 288 128 272
WIRE 16 384 16 352
WIRE 128 384 128 368
FLAG 240 256 0
FLAG 304 128 c
FLAG 160 192 b
FLAG 192 32 plus
FLAG 400 256 0
FLAG 400 128 out
FLAG 48 272 1
FLAG 16 384 0
FLAG 128 384 0
SYMBOL EIT_Semiconductors\\npn 176 144 R0
SYMATTR InstName Q1
SYMBOL source-Vmarker -48 32 R0
SYMATTR InstName U1
SYMBOL res 224 16 R0
SYMATTR InstName RC
SYMATTR Value 2k
SYMBOL source-I 16 160 R180
WINDOW 0 -51 62 Left 2
WINDOW 3 -69 37 Left 2
SYMATTR InstName I1
SYMATTR Value 1f
SYMBOL source-V 80 176 R0
WINDOW 123 0 0 Left 2
WINDOW 39 0 0 Left 2
SYMATTR InstName vbe
SYMATTR Value SINE(0 1m 1k)
SYMBOL cap 0 288 R0
SYMATTR InstName C1
SYMATTR Value 1f
SYMBOL cap 320 144 R270
WINDOW 0 32 32 VTop 2
WINDOW 3 0 32 VBottom 2
SYMATTR InstName C2
SYMATTR Value 100µ
SYMBOL res 384 144 R0
SYMATTR InstName RL
SYMATTR Value 10k
SYMBOL source-V 128 272 R0
SYMATTR InstName V1
SYMATTR Value 0.774231
TEXT -112 80 Left 2 !;op
TEXT -136 128 Left 2 !.tran 2m
