Version 4
SHEET 1 880 680
WIRE 144 -16 112 -16
WIRE 272 -16 144 -16
WIRE 144 16 144 -16
WIRE 272 16 272 -16
WIRE 272 128 272 96
WIRE 304 128 272 128
WIRE 320 128 304 128
WIRE 272 144 272 128
WIRE 144 192 144 96
WIRE 176 192 144 192
WIRE 208 192 176 192
WIRE 144 224 144 192
WIRE 272 256 272 240
WIRE 304 256 272 256
WIRE 320 256 304 256
WIRE 272 272 272 256
WIRE 144 368 144 304
WIRE 272 368 272 352
FLAG 272 368 0
FLAG 144 368 0
FLAG 176 192 bas
FLAG 304 128 col
FLAG 304 256 em
SYMBOL EIT_Semiconductors\\npn 208 144 R0
WINDOW 3 50 57 Left 2
SYMATTR InstName Q1
SYMATTR Value BC547B
SYMBOL res 256 256 R0
SYMATTR InstName RE
SYMATTR Value 1k
SYMBOL res 256 0 R0
SYMATTR InstName RC
SYMATTR Value 15k
SYMBOL res 128 0 R0
SYMATTR InstName R1
SYMATTR Value 100k
SYMBOL res 128 208 R0
SYMATTR InstName R2
SYMATTR Value 22k
SYMBOL source-Vmarker 112 -16 R0
SYMATTR Value V=10V
SYMATTR InstName U1
TEXT 10 392 Left 2 !.op
