Version 4
SHEET 1 880 680
WIRE 112 0 80 0
WIRE 256 0 112 0
WIRE 112 32 112 0
WIRE 256 32 256 0
WIRE 256 128 256 112
WIRE 336 128 256 128
WIRE 368 128 336 128
WIRE 112 176 112 112
WIRE 160 176 112 176
WIRE 192 176 160 176
WIRE 112 240 112 176
WIRE 256 240 256 224
WIRE 336 240 256 240
WIRE 368 240 336 240
WIRE 256 256 256 240
WIRE 112 352 112 320
WIRE 256 352 256 336
FLAG 256 352 0
FLAG 112 352 0
FLAG 336 128 em
FLAG 336 240 kol
FLAG 160 176 ba
SYMBOL EIT_Semiconductors\\pnp_o 192 128 R0
SYMATTR InstName Q1
SYMATTR Value BC557B
SYMBOL res 240 16 R0
SYMATTR InstName RE
SYMATTR Value 2k
SYMBOL res 240 240 R0
SYMATTR InstName RC
SYMATTR Value 5k
SYMBOL source-Vmarker 80 0 R0
SYMATTR Value V=10V
SYMATTR InstName U1
SYMBOL res 96 16 R0
SYMATTR InstName R1
SYMATTR Value 10k
SYMBOL res 96 224 R0
SYMATTR InstName R2
SYMATTR Value 56k
TEXT 8 64 Left 2 !.op
