Version 4
SHEET 1 880 680
WIRE 208 -144 160 -144
WIRE 96 -16 0 -16
WIRE 160 -16 96 -16
WIRE 208 -16 208 -64
WIRE 208 -16 160 -16
WIRE 240 -16 208 -16
WIRE 320 -16 304 -16
WIRE 96 0 96 -16
WIRE 0 16 0 -16
WIRE 208 48 208 -16
WIRE 96 96 96 80
WIRE 144 96 96 96
WIRE 96 112 96 96
WIRE 320 128 320 -16
WIRE -160 160 -192 160
WIRE 0 160 0 96
WIRE 0 160 -16 160
WIRE 16 160 0 160
WIRE 32 160 16 160
WIRE -192 192 -192 160
WIRE 0 192 0 160
WIRE 208 224 208 144
WIRE 320 224 320 208
WIRE 96 240 96 208
WIRE -192 288 -192 272
WIRE 0 288 0 272
WIRE 0 288 -16 288
FLAG 208 224 0
FLAG 320 224 0
FLAG -192 288 0
FLAG 16 160 b1
FLAG 320 -16 RL
FLAG 160 -16 out
FLAG 96 240 0
SYMBOL EIT_Semiconductors\\pnp_o 144 48 R0
SYMATTR InstName Q2
SYMATTR Value bc557B
SYMBOL res -16 176 R0
SYMATTR InstName R1
SYMATTR Value 100k
SYMBOL res 192 -160 R0
SYMATTR InstName RE
SYMATTR Value 2.2k
SYMBOL res 304 112 R0
SYMATTR InstName RL
SYMATTR Value 5.6k
SYMBOL res -176 176 R270
WINDOW 0 25 56 VTop 2
WINDOW 3 7 56 VBottom 2
SYMATTR InstName RA
SYMATTR Value 5.65k
SYMBOL cap -80 176 R270
WINDOW 0 32 32 VTop 2
WINDOW 3 0 32 VBottom 2
SYMATTR InstName C1
SYMATTR Value 1µ
SYMBOL Elko 240 0 R270
WINDOW 0 32 32 VTop 2
WINDOW 3 0 32 VBottom 2
SYMATTR InstName C2
SYMATTR Value 1µ
SYMBOL source-Vmarker 160 -144 R0
SYMATTR InstName U1
SYMBOL source-V -192 176 R0
WINDOW 3 -17 142 Left 2
WINDOW 123 28 109 Left 2
WINDOW 39 0 0 Left 2
SYMATTR InstName V1
SYMATTR Value SINE(0 50m 1k)
SYMATTR Value2 AC 1
SYMBOL source-Vmarker -16 288 R0
WINDOW 3 -52 1 Center 2
SYMATTR Value V=-5.5V
SYMATTR InstName U2
SYMBOL EIT_Semiconductors\\npn 32 112 R0
SYMATTR InstName Q1
SYMATTR Value BC547B
SYMBOL res 80 -16 R0
SYMATTR InstName R2
SYMATTR Value 33k
SYMBOL res -16 0 R0
SYMATTR InstName RB
SYMATTR Value 56k
TEXT -144 352 Left 2 !.model pnpx pnp (IS=1e-15 BF=200 VAF=50)
TEXT -200 -40 Left 2 !;op
TEXT -216 56 Left 2 !;ac oct 10 1 10k
TEXT -184 -112 Left 2 !.tran 2m
