Version 4
SHEET 1 880 680
WIRE 96 -16 0 -16
WIRE 160 -16 96 -16
WIRE 224 -16 160 -16
WIRE 272 -16 224 -16
WIRE 304 -16 272 -16
WIRE 96 0 96 -16
WIRE 0 16 0 -16
WIRE 160 32 160 -16
WIRE 272 32 272 -16
WIRE 336 32 272 32
WIRE 272 48 272 32
WIRE 96 96 96 80
WIRE 160 96 96 96
WIRE 208 96 160 96
WIRE 96 112 96 96
WIRE 400 112 272 112
WIRE 400 128 400 112
WIRE 272 144 272 112
WIRE 336 144 336 32
WIRE -176 160 -192 160
WIRE -160 160 -176 160
WIRE 0 160 0 96
WIRE 0 160 -16 160
WIRE 16 160 0 160
WIRE 32 160 16 160
WIRE -192 192 -192 160
WIRE 0 192 0 160
WIRE 272 192 272 144
WIRE 96 224 96 208
WIRE 128 224 96 224
WIRE 144 224 128 224
WIRE 96 240 96 224
WIRE -192 288 -192 272
WIRE 0 288 0 272
WIRE 272 288 272 272
WIRE 336 288 336 240
WIRE 336 288 272 288
WIRE 368 288 336 288
WIRE 448 288 432 288
WIRE 96 336 96 320
WIRE 224 352 224 224
WIRE 256 352 224 352
WIRE 272 352 272 288
WIRE 272 352 256 352
WIRE 448 352 448 288
WIRE 272 368 272 352
WIRE 96 432 96 400
WIRE 448 448 448 432
WIRE 272 464 272 448
FLAG 272 464 0
FLAG 448 448 0
FLAG -192 288 0
FLAG 16 160 b1
FLAG 448 288 RL
FLAG 224 -16 plus
FLAG 96 432 0
FLAG 0 288 0
FLAG 256 352 out
FLAG -176 160 in
FLAG 128 224 e1
FLAG 400 192 0
SYMBOL EIT_Semiconductors\\pnp_o 208 48 R0
SYMATTR InstName Q2
SYMATTR Value bc557B
SYMBOL res -16 176 R0
SYMATTR InstName R2
SYMATTR Value 560k
SYMBOL res 256 352 R0
SYMATTR InstName RE
SYMATTR Value 1.8k
SYMBOL res 432 336 R0
SYMATTR InstName RL
SYMATTR Value 5.6k
SYMBOL res -176 176 R270
WINDOW 0 25 56 VTop 2
WINDOW 3 7 56 VBottom 2
SYMATTR InstName Ri
SYMATTR Value 50
SYMBOL cap -80 176 R270
WINDOW 0 32 32 VTop 2
WINDOW 3 0 32 VBottom 2
SYMATTR InstName C1
SYMATTR Value 1µ
SYMBOL Elko 368 304 R270
WINDOW 0 32 32 VTop 2
WINDOW 3 0 32 VBottom 2
SYMATTR InstName C2
SYMATTR Value 1µ
SYMBOL source-Vmarker 304 -16 M0
SYMATTR InstName U1
SYMATTR Value V=11.5V
SYMBOL source-V -192 176 R0
WINDOW 3 -17 142 Left 2
WINDOW 123 28 109 Left 2
WINDOW 39 0 0 Left 2
SYMATTR Value PULSE(0 {amp} 0 1p 1p 10u 20u)
SYMATTR Value2 AC 1
SYMATTR InstName V1
SYMBOL EIT_Semiconductors\\npn 32 112 R0
SYMATTR InstName Q1
SYMATTR Value BC547B
SYMBOL res 80 -16 R0
SYMATTR InstName R3
SYMATTR Value 10k
SYMBOL res -16 0 R0
SYMATTR InstName R1
SYMATTR Value 180k
SYMBOL res 80 224 R0
SYMATTR InstName RA
SYMATTR Value 1k
SYMBOL res 240 208 R90
WINDOW 0 7 56 VBottom 2
WINDOW 3 25 56 VTop 2
SYMATTR InstName RB
SYMATTR Value 10k
SYMBOL Elko 80 336 R0
SYMATTR InstName C3
SYMATTR Value 10µ
SYMBOL EIT_Semiconductors\\npn 272 144 R0
SYMATTR InstName Q3
SYMATTR Value BC547B
SYMBOL res 256 176 R0
SYMATTR InstName R4
SYMATTR Value 2k
SYMBOL cap 144 32 R0
SYMATTR InstName C4
SYMATTR Value 20p
SYMBOL cap 384 128 R0
SYMATTR InstName C5
SYMATTR Value 20p
TEXT -160 504 Left 2 !.model pnpx pnp (IS=1e-15 BF=200 VAF=50)
TEXT -200 -40 Left 2 !;op
TEXT -216 56 Left 2 !;ac oct 10 1 10k
TEXT -136 -16 Left 2 !.tran 100u
TEXT -256 400 Left 2 ;.step param amp list 0.2 0.4
TEXT -248 368 Left 2 !.param amp=0.2
