Version 4
SHEET 1 880 680
WIRE 128 32 -48 32
WIRE 192 32 128 32
WIRE 240 32 192 32
WIRE 128 80 128 32
WIRE 240 128 240 112
WIRE 304 128 240 128
WIRE 320 128 304 128
WIRE 400 128 384 128
WIRE 240 144 240 128
WIRE 400 160 400 128
WIRE -48 192 -80 192
WIRE 128 192 128 160
WIRE 128 192 96 192
WIRE 160 192 128 192
WIRE 176 192 160 192
WIRE 128 224 128 192
WIRE 400 256 400 240
WIRE 240 272 240 240
WIRE 256 272 240 272
WIRE 272 272 256 272
WIRE -80 288 -80 272
WIRE 240 288 240 272
WIRE 352 304 352 272
WIRE 128 336 128 304
WIRE 240 400 240 368
WIRE 352 400 352 368
FLAG 240 400 0
FLAG 304 128 c
FLAG 160 192 b
FLAG 192 32 plus
FLAG 400 256 0
FLAG 400 128 out
FLAG -48 192 1
FLAG -80 288 0
FLAG 352 400 0
FLAG 128 336 0
FLAG 256 272 e
SYMBOL EIT_Semiconductors\\npn 176 144 R0
SYMATTR InstName Q1
SYMATTR Value mein_q
SYMBOL source-Vmarker -48 32 R0
SYMATTR InstName U1
SYMATTR Value V=10V
SYMBOL res 224 16 R0
SYMATTR InstName RC
SYMATTR Value 5.6k
SYMBOL source-V -80 176 R0
WINDOW 123 0 0 Left 2
WINDOW 39 0 0 Left 2
WINDOW 3 -36 138 Left 2
SYMATTR InstName v1
SYMATTR Value SINE(0 {amp} 1k)
SYMBOL cap 32 208 R270
WINDOW 0 32 32 VTop 2
WINDOW 3 0 32 VBottom 2
SYMATTR InstName C1
SYMATTR Value 100µ
SYMBOL cap 320 144 R270
WINDOW 0 32 32 VTop 2
WINDOW 3 0 32 VBottom 2
SYMATTR InstName C2
SYMATTR Value 1000µ
SYMBOL res 384 144 R0
SYMATTR InstName RL
SYMATTR Value 5.6k
SYMBOL res 112 64 R0
SYMATTR InstName R1
SYMATTR Value 56k
SYMBOL res 224 272 R0
SYMATTR InstName RE
SYMATTR Value 1.8k
SYMBOL cap 336 304 R0
SYMATTR InstName C3
SYMATTR Value 1000µ
SYMBOL res 256 288 R270
WINDOW 0 25 56 VTop 2
WINDOW 3 7 56 VBottom 2
SYMATTR InstName R3
SYMATTR Value 294
SYMBOL res 112 208 R0
SYMATTR InstName R2
SYMATTR Value 18k
SYMBOL res 48 176 R90
WINDOW 0 7 56 VBottom 2
WINDOW 3 25 56 VTop 2
SYMATTR InstName Ri
SYMATTR Value 50
TEXT -112 80 Left 2 !;op
TEXT -136 128 Left 2 !.tran 2m
TEXT -120 424 Left 2 !.model mein_q npn (BF=200)
TEXT -120 344 Left 2 !.param amp=1m
TEXT -128 384 Left 2 !.step param amp 100m 400m 10m
