Version 4
SHEET 1 880 680
WIRE 224 -16 112 -16
WIRE 272 -16 224 -16
WIRE 272 16 272 -16
WIRE 272 128 272 96
WIRE 304 128 272 128
WIRE 352 128 304 128
WIRE 448 128 416 128
WIRE 464 128 448 128
WIRE 272 144 272 128
WIRE -64 192 -96 192
WIRE 48 192 16 192
WIRE 144 192 112 192
WIRE 208 192 192 192
WIRE 464 192 464 128
WIRE 192 224 192 192
WIRE -96 240 -96 192
WIRE 272 256 272 240
WIRE 304 256 272 256
WIRE 320 256 304 256
WIRE 144 272 144 192
WIRE 272 272 272 256
WIRE 272 272 144 272
WIRE 464 304 464 272
WIRE -96 336 -96 320
WIRE 272 384 272 352
WIRE 272 384 240 384
FLAG 304 128 col
FLAG 304 256 em
FLAG 224 -16 plus
FLAG -96 336 0
FLAG 464 304 0
FLAG 448 128 out
FLAG 192 224 0
SYMBOL EIT_Semiconductors\\npn 208 144 R0
WINDOW 3 50 57 Left 2
SYMATTR Value npn_e
SYMATTR InstName Q1
SYMBOL res 256 256 R0
SYMATTR InstName RE
SYMATTR Value 10k
SYMBOL res 256 0 R0
SYMATTR InstName RC
SYMATTR Value 5k
SYMBOL source-Vmarker 112 -16 R0
SYMATTR Value V=10V
SYMATTR InstName U1
SYMBOL source-Vmarker 240 384 R0
SYMATTR Value V=-10V
SYMATTR InstName U2
SYMBOL cap 48 208 R270
WINDOW 0 32 32 VTop 2
WINDOW 3 0 32 VBottom 2
SYMATTR InstName C1
SYMATTR Value 10µ
SYMBOL res -80 208 R270
WINDOW 0 25 56 VTop 2
WINDOW 3 7 56 VBottom 2
SYMATTR InstName R1
SYMATTR Value 50
SYMBOL source-V -96 224 R0
WINDOW 123 28 109 Left 2
WINDOW 39 0 0 Left 2
SYMATTR Value2 AC 1
SYMATTR InstName V1
SYMATTR Value ""
SYMBOL cap 352 144 R270
WINDOW 0 32 32 VTop 2
WINDOW 3 0 32 VBottom 2
SYMATTR InstName C2
SYMATTR Value 1µ
SYMBOL res 448 176 R0
SYMATTR InstName RL
SYMATTR Value 5k
TEXT 8 320 Left 2 !;op
TEXT 8 280 Left 2 !.ac oct 10 1 10meg
TEXT 56 -72 Left 2 !.model npn_e npn (bf=200 VAF=80 IS=1.e-14)
