*version 8.0 2877413633
u 739
D? 5
L? 8
C? 7
R? 7
U? 3
E? 3
UE? 2
PM? 2
K? 7
I? 3
@libraries
@analysis
.TRAN 1 0 0 0
+0 1m
+1 1m
+2 0.9m
+3 0.01u
.PROBE 0 0 1 1 0 3
@targets
@attributes
@translators
a 0 u 13 0 0 0 hln 100 TANGO=PCB
a 0 u 13 0 0 0 hln 100 SCICARDS=PCB
a 0 u 13 0 0 0 hln 100 PROTEL=PCB
a 0 u 13 0 0 0 hln 100 PCBOARDS=PCB
a 0 u 13 0 0 0 hln 100 PCAD=PCB
a 0 u 13 0 0 0 hln 100 PADS=PCB
a 0 u 13 0 0 0 hln 100 ORCAD=PCB
a 0 u 13 0 0 0 hln 100 EDIF=PCB
a 0 u 13 0 0 0 hln 100 CADSTAR=PCB
a 0 u 13 0 0 0 hln 100 PSPICE=PSPICE
a 0 u 13 0 0 0 hln 100 XILINX=XILINX
@setup
unconnectedPins 0
connectViaLabel 0
connectViaLocalLabels 0
NoStim4ExtIFPortsWarnings 1
AutoGenStim4ExtIFPorts 1
@index
pageloc 1 0 7980 
@status
n 0 104:10:11:14:33:01;1100179981 e 
s 2832 104:10:11:21:35:59;1100205359 e 
c 104:10:11:14:32:36;1100179956
*page 1 0 970 720 iA
@ports
port 441 GND 270 220 h
port 498 GND 480 210 h
port 499 GND 550 220 h
port 222 GND 630 220 h
port 346 GND 130 70 h
port 306 GND 50 220 h
@parts
part 448 K 190 270 h
a 0 u 13 0 0 39 hln 100 L2=L42
a 0 sp 0:11 0 1 20 hln 100 PART=K
a 0 s 0:13 0 0 0 hln 100 PKGTYPE=
a 0 a 0:13 0 0 0 hln 100 PKGREF=K1
a 1 ap 9 0 0 8 hln 100 REFDES=K1
a 0 u 13 13 0 20 hln 100 KOPPLUNG=1
a 0 u 13 0 0 30 hln 100 L1=L41
part 449 K 190 320 h
a 0 u 13 0 0 39 hln 100 L2=L43
a 0 sp 0:11 0 1 20 hln 100 PART=K
a 0 s 0:13 0 0 0 hln 100 PKGTYPE=
a 0 u 13 13 0 20 hln 100 KOPPLUNG=1
a 0 u 13 0 0 30 hln 100 L1=L41
a 0 a 0:13 0 0 0 hln 100 PKGREF=K2
a 1 ap 9 0 0 8 hln 100 REFDES=K2
part 450 K 190 370 h
a 0 u 13 0 0 39 hln 100 L2=L43
a 0 sp 0:11 0 1 20 hln 100 PART=K
a 0 s 0:13 0 0 0 hln 100 PKGTYPE=
a 0 u 13 13 0 20 hln 100 KOPPLUNG=1
a 0 a 0:13 0 0 0 hln 100 PKGREF=K3
a 1 ap 9 0 0 8 hln 100 REFDES=K3
a 0 u 13 0 0 30 hln 100 L1=L42
part 446 L 310 150 h
a 0 x 0:13 0 0 0 hln 100 PKGREF=L42
a 1 xp 9 0 17 18 hln 100 REFDES=L42
a 0 sp 0 0 0 10 hlb 100 PART=L
a 0 s 0:13 0 0 0 hln 100 PKGTYPE=
a 0 u 13 0 17 29 hln 100 VALUE=1m
part 447 L 310 210 h
a 0 x 0:13 0 0 0 hln 100 PKGREF=L43
a 1 xp 9 0 17 18 hln 100 REFDES=L43
a 0 sp 0 0 0 10 hlb 100 PART=L
a 0 s 0:13 0 0 0 hln 100 PKGTYPE=
a 0 u 13 0 17 29 hln 100 VALUE=1m
part 440 L 270 180 h
a 0 u 13 0 17 29 hln 100 VALUE=1m
a 0 sp 0 0 0 10 hlb 100 PART=L
a 0 s 0:13 0 0 0 hln 100 PKGTYPE=
a 0 x 0:13 0 0 0 hln 100 PKGREF=L41
a 1 xp 9 0 17 18 hln 100 REFDES=L41
part 465 L 510 150 h
a 0 sp 0 0 0 10 hlb 100 PART=L
a 0 s 0:13 0 0 0 hln 100 PKGTYPE=
a 0 u 13 0 17 29 hln 100 VALUE=1m
a 0 x 0:13 0 0 0 hln 100 PKGREF=L52
a 1 xp 9 0 17 18 hln 100 REFDES=L52
part 466 L 510 210 h
a 0 sp 0 0 0 10 hlb 100 PART=L
a 0 s 0:13 0 0 0 hln 100 PKGTYPE=
a 0 u 13 0 17 29 hln 100 VALUE=1m
a 0 x 0:13 0 0 0 hln 100 PKGREF=L53
a 1 xp 9 0 17 18 hln 100 REFDES=L53
part 500 L 550 180 h
a 0 u 13 0 17 29 hln 100 VALUE=1m
a 0 sp 0 0 0 10 hlb 100 PART=L
a 0 s 0:13 0 0 0 hln 100 PKGTYPE=
a 0 x 0:13 0 0 0 hln 100 PKGREF=L51
a 1 xp 9 0 17 18 hln 100 REFDES=L51
part 509 R 570 170 v
a 0 x 0:13 0 0 0 hln 100 PKGREF=Rd2
a 1 xp 9 0 17 28 hln 100 REFDES=Rd2
a 0 sp 0 0 0 10 hlb 100 PART=R
a 0 s 0:13 0 0 0 hln 100 PKGTYPE=
a 0 u 13 0 -5 33 hln 100 VALUE=0.001
part 511 K 550 270 h
a 0 u 13 0 0 39 hln 100 L2=L52
a 0 sp 0:11 0 1 20 hln 100 PART=K
a 0 s 0:13 0 0 0 hln 100 PKGTYPE=
a 0 u 13 13 0 20 hln 100 KOPPLUNG=1
a 0 a 0:13 0 0 0 hln 100 PKGREF=K4
a 1 ap 9 0 0 8 hln 100 REFDES=K4
a 0 u 13 0 0 30 hln 100 L1=L51
part 512 K 550 320 h
a 0 u 13 0 0 39 hln 100 L2=L53
a 0 sp 0:11 0 1 20 hln 100 PART=K
a 0 s 0:13 0 0 0 hln 100 PKGTYPE=
a 0 u 13 13 0 20 hln 100 KOPPLUNG=1
a 0 a 0:13 0 0 0 hln 100 PKGREF=K5
a 1 ap 9 0 0 8 hln 100 REFDES=K5
a 0 u 13 0 0 30 hln 100 L1=L51
part 513 K 550 370 h
a 0 u 13 0 0 39 hln 100 L2=L53
a 0 sp 0:11 0 1 20 hln 100 PART=K
a 0 s 0:13 0 0 0 hln 100 PKGTYPE=
a 0 u 13 13 0 20 hln 100 KOPPLUNG=1
a 0 a 0:13 0 0 0 hln 100 PKGREF=K6
a 1 ap 9 0 0 8 hln 100 REFDES=K6
a 0 u 13 0 0 30 hln 100 L1=L52
part 43 BAS40 390 140 v
a 0 x 0:13 0 0 0 hln 100 PKGREF=D1
a 0 sp 0 0 15 25 hln 100 PART=BAS40
a 0 s 0:13 0 0 0 hln 100 PKGTYPE=
a 0 sp 13 0 -9 37 hln 100 MODEL=BAS40
a 0 xp 9 0 23 28 hln 100 REFDES=D1
part 460 BAS40 390 260 v
a 0 sp 0 0 15 25 hln 100 PART=BAS40
a 0 s 0:13 0 0 0 hln 100 PKGTYPE=
a 0 sp 13 0 -9 37 hln 100 MODEL=BAS40
a 0 x 0:13 0 0 0 hln 100 PKGREF=D4
a 0 xp 9 0 23 28 hln 100 REFDES=D4
part 532 BAS40 430 220 d
a 0 sp 0 0 15 25 hln 100 PART=BAS40
a 0 s 0:13 0 0 0 hln 100 PKGTYPE=
a 0 x 0:13 0 0 0 hln 100 PKGREF=D3
a 0 xp 9 0 1 26 hln 100 REFDES=D3
a 0 sp 13 0 27 37 hln 100 MODEL=BAS40
part 531 BAS40 430 180 d
a 0 sp 0 0 15 25 hln 100 PART=BAS40
a 0 s 0:13 0 0 0 hln 100 PKGTYPE=
a 0 sp 13 0 27 37 hln 100 MODEL=BAS40
a 0 x 0:13 0 0 0 hln 100 PKGREF=D2
a 0 xp 9 0 1 26 hln 100 REFDES=D2
part 21 U-Sinus 130 30 h
a 0 u 13 13 34 24 hln 100 AMPLITUDE=0.5V
a 0 u 13 13 34 34 hln 100 f=1MegaHz
a 0 sp 0:11 0 0 10 hlb 100 PART=U-Sinus
a 0 s 0:13 0 0 0 hln 100 PKGTYPE=
a 0 x 0:13 0 0 0 hln 100 PKGREF=Ulo
a 1 xp 9 0 0 22 hrn 100 REFDES=Ulo
part 438 R 210 170 v
a 0 sp 0 0 0 10 hlb 100 PART=R
a 0 s 0:13 0 0 0 hln 100 PKGTYPE=
a 0 u 13 0 -5 33 hln 100 VALUE=0.001
a 0 x 0:13 0 0 0 hln 100 PKGREF=Rd1
a 1 xp 9 0 17 28 hln 100 REFDES=Rd1
part 77 U-Sinus 50 180 h
a 0 u 13 13 34 34 hln 100 f=200kHz
a 0 x 0:13 0 0 0 hln 100 PKGREF=Ugzf
a 1 xp 9 0 0 22 hrn 100 REFDES=Ugzf
a 0 sp 0:11 0 0 10 hlb 100 PART=U-Sinus
a 0 s 0:13 0 0 0 hln 100 PKGTYPE=
a 0 u 13 13 34 24 hln 100 AMPLITUDE=0.01V
part 701 Strommesser 150 170 v
a 0 sp 0:11 0 0 50 hln 100 PART=Strommesser
a 0 x 0:13 0 0 0 hln 100 PKGREF=I1
a 1 xp 9 0 38 24 hrn 100 REFDES=I1
part 578 Strommesser 630 180 h
a 0 sp 0:11 0 0 50 hln 100 PART=Strommesser
a 0 x 0:13 0 0 0 hln 100 PKGREF=I2
a 1 xp 9 0 6 24 hrn 100 REFDES=I2
part 1 titleblk 970 720 h
a 1 s 13 0 350 10 hcn 100 PAGESIZE=A
a 1 s 13 0 180 60 hcn 100 PAGETITLE=
a 1 s 13 0 340 95 hrn 100 PAGECOUNT=1
a 1 s 13 0 300 95 hrn 100 PAGENO=1
@conn
w 422
a 0 up 0:33 0 0 0 hln 100 V=
s 190 170 210 170 703
a 0 up 33 0 200 169 hct 100 V=
w 443
a 0 up 0:33 0 0 0 hln 100 V=
s 250 170 270 170 442
a 0 up 33 0 260 169 hct 100 V=
s 270 170 270 180 444
w 462
a 0 up 0:33 0 0 0 hln 100 V=
s 510 190 510 200 627
s 510 200 510 210 710
s 510 200 480 200 493
a 0 up 33 0 495 199 hct 100 V=
s 480 200 480 210 496
w 502
a 0 up 0:33 0 0 0 hln 100 V=
s 550 180 550 170 501
s 550 170 570 170 503
a 0 up 33 0 560 169 hct 100 V=
w 476
a 0 up 0:33 0 0 0 hln 100 V=
s 310 250 310 260 475
s 310 260 380 260 634
a 0 up 33 0 350 259 hct 100 V=
s 390 220 380 220 557
s 380 260 390 260 717
s 380 220 380 260 559
w 472
a 0 up 0:33 0 0 0 hln 100 V=
s 310 150 310 140 471
s 310 140 380 140 639
a 0 up 33 0 350 139 hct 100 V=
s 390 180 380 180 562
s 380 140 390 140 722
s 380 180 380 140 564
w 480
a 0 up 0:33 0 0 0 hln 100 V=
s 510 140 510 150 481
s 430 140 440 140 644
a 0 up 33 0 470 139 hct 100 V=
s 430 220 440 220 567
s 440 140 510 140 727
s 440 220 440 140 569
w 484
a 0 up 0:33 0 0 0 hln 100 V=
s 510 250 510 260 483
s 510 260 450 260 649
a 0 up 33 0 470 259 hct 100 V=
s 430 180 450 180 572
s 450 260 430 260 732
s 450 180 450 260 574
w 577
a 0 up 0:33 0 0 0 hln 100 V=
s 610 170 630 170 505
a 0 up 33 0 620 169 hct 100 V=
s 630 170 630 180 267
w 579
a 0 up 0:33 0 0 0 hln 100 V=
a 0 sr 0:3 0 245 28 hcn 100 LABEL=Ulo
s 350 20 130 20 458
a 0 sr 3 0 215 18 hcn 100 LABEL=Ulo
a 0 up 33 0 215 19 hct 100 V=
s 350 200 350 20 456
s 310 200 350 200 453
s 310 200 310 210 666
s 310 190 310 200 599
s 130 20 130 30 11
w 704
a 0 up 0:33 0 0 0 hln 100 V=
a 0 sr 0:3 0 70 168 hcn 100 LABEL=Uzf
s 50 170 150 170 691
a 0 up 33 0 40 169 hct 100 V=
a 0 sr 3 0 56 168 hcn 100 LABEL=Uzf
s 50 170 50 180 698
@junction
j 270 220
+ p 440 2
+ s 441
j 550 220
+ p 500 2
+ s 499
j 130 70
+ p 21 -
+ s 346
j 50 220
+ p 77 -
+ s 306
j 630 220
+ p 578 -
+ s 222
j 50 180
+ p 77 +
+ w 704
j 150 170
+ p 701 +
+ w 704
j 210 170
+ p 438 1
+ w 422
j 190 170
+ p 701 -
+ w 422
j 250 170
+ p 438 2
+ w 443
j 270 180
+ p 440 1
+ w 443
j 510 190
+ p 465 2
+ w 462
j 510 210
+ p 466 1
+ w 462
j 510 200
+ w 462
+ w 462
j 480 210
+ s 498
+ w 462
j 550 180
+ p 500 1
+ w 502
j 570 170
+ p 509 1
+ w 502
j 310 250
+ p 447 2
+ w 476
j 390 260
+ p 460 a
+ w 476
j 390 220
+ p 532 k
+ w 476
j 380 260
+ w 476
+ w 476
j 310 150
+ p 446 1
+ w 472
j 390 140
+ p 43 a
+ w 472
j 390 180
+ p 531 k
+ w 472
j 380 140
+ w 472
+ w 472
j 510 150
+ p 465 1
+ w 480
j 430 140
+ p 43 k
+ w 480
j 430 220
+ p 532 a
+ w 480
j 440 140
+ w 480
+ w 480
j 510 250
+ p 466 2
+ w 484
j 430 260
+ p 460 k
+ w 484
j 430 180
+ p 531 a
+ w 484
j 450 260
+ w 484
+ w 484
j 610 170
+ p 509 2
+ w 577
j 630 180
+ p 578 +
+ w 577
j 310 210
+ p 447 1
+ w 579
j 310 190
+ p 446 2
+ w 579
j 310 200
+ w 579
+ w 579
j 130 30
+ p 21 +
+ w 579
@attributes
a 0 s 0:13 0 0 0 hln 100 PAGETITLE=
a 0 s 0:13 0 0 0 hln 100 PAGENO=1
a 0 s 0:13 0 0 0 hln 100 PAGESIZE=A
a 0 s 0:13 0 0 0 hln 100 PAGECOUNT=1
@graphics
