Version 4
SHEET 1 880 680
WIRE 0 192 -208 192
WIRE 32 192 0 192
WIRE 368 192 320 192
WIRE 464 192 368 192
WIRE -208 208 -208 192
WIRE 368 208 368 192
WIRE 464 208 464 192
WIRE 0 288 0 192
WIRE 32 288 0 288
WIRE -208 304 -208 288
WIRE 368 304 368 272
WIRE 464 304 464 288
WIRE 176 384 176 352
FLAG -208 304 0
FLAG 176 384 0
FLAG 368 304 0
FLAG 464 304 0
FLAG 464 192 OUT
FLAG -208 192 IN
SYMBOL voltage -208 192 R0
SYMATTR Value PWL(0 0 1 10)
SYMATTR InstName V1
SYMBOL res 448 192 R0
SYMATTR InstName Rload
SYMATTR Value 100
SYMBOL cap 352 208 R0
SYMATTR InstName C1
SYMATTR Value 1µ
SYMBOL PowerProducts\\LT1121-5 176 240 R0
SYMATTR InstName U1
TEXT 368 384 Left 2 !.tran 1
