Version 4
SHEET 1 1620 1192
WIRE 48 -80 -64 -80
WIRE 208 -80 112 -80
WIRE 496 -80 208 -80
WIRE 688 -80 496 -80
WIRE 208 -64 208 -80
WIRE 688 -64 688 -80
WIRE 1008 -48 896 -48
WIRE -64 -32 -64 -80
WIRE 896 -32 896 -48
WIRE 208 16 208 0
WIRE 688 32 688 16
WIRE 896 64 896 48
WIRE -64 80 -64 48
WIRE -64 80 -160 80
WIRE 80 80 -64 80
WIRE -160 96 -160 80
WIRE 496 96 496 -80
WIRE 80 112 80 80
WIRE 208 112 208 96
WIRE 832 128 624 128
WIRE 1008 128 1008 -48
WIRE 1008 128 832 128
WIRE 624 160 624 128
WIRE 832 160 832 128
WIRE -160 176 -160 160
WIRE 1168 176 1056 176
WIRE 1312 176 1232 176
WIRE 1424 176 1312 176
WIRE -64 192 -64 80
WIRE -16 192 -64 192
WIRE 416 192 304 192
WIRE 496 192 496 176
WIRE 496 192 416 192
WIRE 1008 192 1008 128
WIRE 1056 192 1056 176
WIRE 1312 192 1312 176
WIRE 1424 192 1424 176
WIRE 496 208 496 192
WIRE 624 272 624 224
WIRE 832 272 832 224
WIRE -96 288 -112 288
WIRE -16 288 -32 288
WIRE 320 288 304 288
WIRE 416 288 416 192
WIRE 416 288 400 288
WIRE 1056 288 1056 272
WIRE 1312 288 1312 256
WIRE 1424 288 1424 272
WIRE 496 304 496 288
WIRE -16 384 -32 384
WIRE 624 384 624 336
WIRE 624 384 304 384
WIRE 832 384 832 352
WIRE 832 384 624 384
WIRE 1008 384 1008 272
WIRE 1008 384 832 384
WIRE -192 480 -224 480
WIRE -16 480 -128 480
WIRE 336 480 304 480
WIRE 432 480 416 480
WIRE 80 576 80 560
WIRE 208 576 208 560
WIRE 80 672 80 656
FLAG 896 64 0
FLAG -224 480 0
FLAG 1312 288 0
FLAG 1056 288 0
FLAG 1424 288 0
FLAG 896 -48 IN
FLAG 1424 176 OUT
FLAG 208 576 0
FLAG 80 672 0
FLAG 432 480 0
FLAG 496 304 0
FLAG 688 32 0
FLAG -32 384 0
FLAG -112 288 0
FLAG -160 176 0
SYMBOL voltage 896 -48 R0
SYMATTR InstName V1
SYMATTR Value 100
SYMBOL cap -192 464 M90
WINDOW 0 0 32 VBottom 2
WINDOW 3 32 32 VTop 2
WINDOW 39 53 32 VTop 2
SYMATTR InstName C1
SYMATTR Value 22n
SYMATTR SpiceLine Rser=100K Cpar=470p
SYMBOL ind2 992 176 R0
WINDOW 0 -3 37 Right 2
WINDOW 3 -4 74 Right 2
SYMATTR InstName L1
SYMATTR Value 4m
SYMATTR SpiceLine Rser=6
SYMATTR Type ind
SYMBOL ind2 1072 288 R180
WINDOW 0 -2 77 Right 2
WINDOW 3 -1 41 Right 2
SYMATTR InstName L2
SYMATTR Value 160µ
SYMATTR SpiceLine Rser=0.5 Cpar=0.5p
SYMATTR Type ind
SYMBOL cap 1296 192 R0
SYMATTR SpiceLine Rser=15m
SYMATTR InstName C2
SYMATTR Value 330µ
SYMBOL schottky 1168 192 R270
WINDOW 0 32 32 VTop 2
WINDOW 3 0 32 VBottom 2
SYMATTR InstName D1
SYMATTR Value RB058L150
SYMATTR Description Diode
SYMATTR Type diode
SYMBOL res 320 496 R270
WINDOW 0 32 56 VTop 2
WINDOW 3 0 56 VBottom 2
SYMATTR InstName R1
SYMATTR Value 330m
SYMBOL LT8315 144 336 R0
SYMATTR InstName U1
SYMBOL res 64 560 R0
SYMATTR InstName R2
SYMATTR Value 121K
SYMBOL cap 192 -64 R0
SYMATTR InstName C3
SYMATTR Value 47p
SYMBOL res 192 0 R0
SYMATTR InstName R3
SYMATTR Value 20K
SYMBOL diode 112 -96 R90
WINDOW 0 0 32 VBottom 2
WINDOW 3 32 32 VTop 2
SYMATTR InstName D2
SYMATTR Value RB058L150
SYMBOL res -80 -48 R0
SYMATTR InstName R4
SYMATTR Value 600
SYMBOL res 416 272 R90
WINDOW 0 0 56 VBottom 2
WINDOW 3 32 56 VTop 2
SYMATTR InstName R5
SYMATTR Value 61.9K
SYMBOL res 480 80 R0
SYMATTR InstName R6
SYMATTR Value 95.3K
SYMBOL res 480 192 R0
SYMATTR InstName R7
SYMATTR Value 5.11K
SYMBOL schottky 608 160 R0
SYMATTR InstName D3
SYMATTR Value RB168VYM150
SYMATTR Description Diode
SYMATTR Type diode
SYMBOL diode 608 336 M180
WINDOW 0 24 64 Left 2
WINDOW 3 24 0 Left 2
SYMATTR InstName D4
SYMATTR Value RFN30TS6D
SYMBOL ind2 672 32 M180
WINDOW 0 40 88 Left 2
WINDOW 3 42 38 Left 2
SYMATTR InstName L3
SYMATTR Value 640µ
SYMATTR SpiceLine Rser=2.4
SYMATTR Type ind
SYMBOL cap -32 272 R90
WINDOW 0 0 32 VBottom 2
WINDOW 3 32 32 VTop 2
SYMATTR InstName C4
SYMATTR Value 10µ
SYMBOL cap -176 96 R0
SYMATTR InstName C5
SYMATTR Value 10µ
SYMBOL cap 816 160 R0
SYMATTR InstName C6
SYMATTR Value 120p
SYMBOL res 816 256 R0
SYMATTR InstName R8
SYMATTR Value 200
SYMBOL res 1408 176 R0
SYMATTR InstName Rload
SYMATTR Value 60
TEXT 1000 -104 Bottom 2 !K1 L1 L2 L3 0.993
TEXT 592 488 Left 2 !.tran 360m startup
TEXT 1000 -136 Bottom 2 ;5:1:2
