Version 4
SHEET 1 2888 1300
WIRE -176 -512 -480 -512
WIRE -48 -512 -176 -512
WIRE -32 -512 -48 -512
WIRE 80 -512 48 -512
WIRE 96 -512 80 -512
WIRE 208 -512 176 -512
WIRE 496 -512 208 -512
WIRE -176 -464 -176 -512
WIRE -48 -464 -48 -512
WIRE 80 -464 80 -512
WIRE 208 -464 208 -512
WIRE -752 -384 -880 -384
WIRE -640 -384 -752 -384
WIRE -480 -384 -480 -512
WIRE -480 -384 -544 -384
WIRE -368 -384 -480 -384
WIRE -288 -384 -304 -384
WIRE 352 -384 320 -384
WIRE 496 -384 496 -512
WIRE 496 -384 416 -384
WIRE 672 -384 496 -384
WIRE 880 -384 768 -384
WIRE 960 -384 880 -384
WIRE 1056 -384 960 -384
WIRE -880 -368 -880 -384
WIRE -480 -368 -480 -384
WIRE 496 -368 496 -384
WIRE 960 -368 960 -384
WIRE -288 -288 -432 -288
WIRE 448 -288 320 -288
WIRE 960 -288 960 -304
WIRE -880 -272 -880 -288
WIRE -480 -256 -480 -272
WIRE 496 -256 496 -272
WIRE -560 -208 -560 -336
WIRE -288 -208 -560 -208
WIRE 688 -208 688 -336
WIRE 688 -208 320 -208
WIRE -752 -128 -752 -384
WIRE -288 -128 -752 -128
WIRE 880 -128 880 -384
WIRE 880 -128 320 -128
WIRE -752 -32 -752 -48
WIRE -288 -32 -752 -32
WIRE 864 -32 320 -32
WIRE -752 -16 -752 -32
WIRE 1056 48 1056 -384
WIRE 1056 48 976 48
WIRE -496 64 -512 64
WIRE -416 64 -432 64
WIRE -288 64 -416 64
WIRE 384 64 320 64
WIRE 480 64 384 64
WIRE 976 64 976 48
WIRE 976 64 560 64
WIRE 1056 64 1056 48
WIRE -752 80 -752 64
WIRE 384 80 384 64
WIRE -416 160 -416 64
WIRE -400 160 -416 160
WIRE -288 160 -320 160
WIRE 384 160 384 144
WIRE 384 160 320 160
WIRE 480 160 384 160
WIRE 976 160 560 160
WIRE 976 176 976 160
WIRE 1056 176 1056 144
WIRE 1056 176 976 176
WIRE -512 256 -528 256
WIRE -416 256 -448 256
WIRE -320 256 -416 256
WIRE -288 256 -320 256
WIRE 864 256 864 -32
WIRE 928 256 864 256
WIRE 1056 256 1056 176
WIRE 1056 256 1008 256
WIRE 1168 256 1056 256
WIRE 864 272 864 256
WIRE 1168 272 1168 256
WIRE 1056 288 1056 256
WIRE -416 352 -416 256
WIRE -320 352 -320 256
WIRE -288 352 -320 352
WIRE 864 368 864 352
WIRE 1056 368 1056 352
WIRE 1168 368 1168 352
WIRE -416 448 -416 432
WIRE -288 448 -416 448
WIRE 336 448 320 448
WIRE -416 464 -416 448
WIRE -288 528 -304 528
WIRE 336 528 320 528
WIRE -416 560 -416 544
WIRE -176 640 -176 624
WIRE 16 640 16 624
WIRE 208 640 208 624
WIRE -176 720 -176 704
WIRE 16 720 16 704
WIRE 208 736 208 720
FLAG 336 528 0
FLAG -176 720 0
FLAG 208 736 0
FLAG 16 720 0
FLAG -880 -272 0
FLAG -752 80 0
FLAG 1168 368 0
FLAG 960 -288 0
FLAG -880 -384 IN
FLAG -480 -256 0
FLAG 496 -256 0
FLAG 864 368 0
FLAG 336 448 0
FLAG -512 64 0
FLAG -528 256 0
FLAG 1168 256 OUT
FLAG 1056 368 0
FLAG -304 528 0
FLAG -416 560 0
SYMBOL cap -192 640 R0
SYMATTR InstName C1
SYMATTR Value 22n
SYMBOL cap 0 640 R0
WINDOW 3 38 33 Left 2
WINDOW 39 27 59 Left 2
SYMATTR Value 1n
SYMATTR SpiceLine Rser=15K
SYMATTR InstName C2
SYMBOL voltage -880 -384 R0
SYMATTR InstName V1
SYMATTR Value 6
SYMBOL res -48 -496 R270
WINDOW 0 32 56 VTop 2
WINDOW 3 0 56 VBottom 2
SYMATTR InstName R1
SYMATTR Value 5m
SYMBOL res -768 -144 R0
SYMATTR InstName R2
SYMATTR Value 383K
SYMBOL cap -304 -400 R90
WINDOW 0 0 32 VBottom 2
WINDOW 3 32 32 VTop 2
SYMATTR InstName C3
SYMATTR Value 0.1µ
SYMBOL nmos -640 -336 R270
WINDOW 0 53 47 VTop 2
WINDOW 3 -15 71 VLeft 2
SYMATTR InstName Q1
SYMATTR Value IPB081N06L3
SYMBOL nmos -432 -368 M0
WINDOW 0 -10 25 Right 2
WINDOW 3 28 105 Right 2
SYMATTR InstName Q2
SYMATTR Value IPB081N06L3
SYMBOL ind 80 -496 R270
WINDOW 0 32 56 VTop 2
WINDOW 3 5 56 VBottom 2
SYMATTR InstName L1
SYMATTR Value 1µ
SYMATTR SpiceLine Rser=2m
SYMBOL res 1040 48 R0
SYMATTR InstName R3
SYMATTR Value 10m
SYMBOL cap 944 -368 R0
WINDOW 3 34 45 Left 2
SYMATTR Value 22µ
SYMATTR InstName C4
SYMATTR SpiceLine Rser=10m
SYMBOL res -768 -32 R0
SYMATTR InstName R4
SYMATTR Value 165K
SYMBOL nmos 768 -336 M270
WINDOW 0 57 42 VTop 2
WINDOW 3 -12 69 VLeft 2
SYMATTR InstName Q3
SYMATTR Value BSC032NE2LS
SYMBOL nmos 448 -368 R0
WINDOW 0 55 27 Left 2
WINDOW 3 58 76 Left 2
SYMATTR InstName Q4
SYMATTR Value BSC032NE2LS
SYMBOL cap 416 -400 R90
WINDOW 0 0 32 VBottom 2
WINDOW 3 32 32 VTop 2
SYMATTR InstName C5
SYMATTR Value 0.1µ
SYMBOL res 192 624 R0
SYMATTR InstName R5
SYMATTR Value 59K
SYMBOL res 1024 240 R90
WINDOW 0 0 56 VBottom 2
WINDOW 3 32 56 VTop 2
SYMATTR InstName R6
SYMATTR Value 110K
SYMBOL res 848 256 R0
SYMATTR InstName R7
SYMATTR Value 10K
SYMBOL cap -432 48 R90
WINDOW 0 0 32 VBottom 2
WINDOW 3 32 32 VTop 2
SYMATTR InstName C6
SYMATTR Value 4.7µ
SYMBOL res -416 176 R270
WINDOW 0 32 56 VTop 2
WINDOW 3 0 56 VBottom 2
SYMATTR InstName R8
SYMATTR Value 100K
SYMBOL cap -448 240 R90
WINDOW 0 0 32 VBottom 2
WINDOW 3 32 32 VTop 2
SYMATTR InstName C7
SYMATTR Value 0.47µ
SYMBOL cap 1040 288 R0
WINDOW 3 34 47 Left 2
SYMATTR Value 22µ
SYMATTR InstName C8
SYMATTR SpiceLine Rser=10m
SYMBOL res -432 336 R0
SYMATTR InstName R9
SYMATTR Value 133K
SYMBOL res -432 448 R0
SYMATTR InstName R10
SYMATTR Value 100K
SYMBOL LT8390A 16 80 R0
SYMATTR InstName U1
SYMBOL res 576 48 R90
WINDOW 0 0 56 VBottom 2
WINDOW 3 32 56 VTop 2
SYMATTR InstName R11
SYMATTR Value 10
SYMBOL cap 368 80 R0
SYMATTR InstName C9
SYMATTR Value 1µ
SYMBOL res 576 144 R90
WINDOW 0 0 56 VBottom 2
WINDOW 3 32 56 VTop 2
SYMATTR InstName R12
SYMATTR Value 10
SYMBOL res 1152 256 R0
SYMATTR InstName Rload
SYMATTR Value 10
TEXT 472 632 Left 2 !.tran 3m startup
TEXT 232 736 Left 2 ;2MHz
