Version 4
SHEET 1 2888 1300
WIRE -176 -544 -480 -544
WIRE -48 -544 -176 -544
WIRE -32 -544 -48 -544
WIRE 80 -544 48 -544
WIRE 96 -544 80 -544
WIRE 208 -544 176 -544
WIRE 512 -544 208 -544
WIRE -176 -464 -176 -544
WIRE -48 -464 -48 -544
WIRE 80 -464 80 -544
WIRE 208 -464 208 -544
WIRE -912 -432 -1200 -432
WIRE -768 -432 -912 -432
WIRE -480 -432 -480 -544
WIRE -480 -432 -672 -432
WIRE -432 -432 -480 -432
WIRE -336 -432 -368 -432
WIRE 400 -432 368 -432
WIRE 512 -432 512 -544
WIRE 512 -432 464 -432
WIRE 688 -432 512 -432
WIRE 896 -432 784 -432
WIRE 960 -432 896 -432
WIRE 1040 -432 960 -432
WIRE 1184 -432 1040 -432
WIRE -1200 -416 -1200 -432
WIRE 1040 -416 1040 -432
WIRE -336 -384 -336 -432
WIRE -288 -384 -336 -384
WIRE 368 -384 368 -432
WIRE 368 -384 320 -384
WIRE -480 -368 -480 -432
WIRE 512 -368 512 -432
WIRE 1040 -336 1040 -352
WIRE -1200 -320 -1200 -336
WIRE -288 -288 -432 -288
WIRE 464 -288 320 -288
WIRE 960 -256 960 -432
WIRE -480 -240 -480 -272
WIRE 512 -240 512 -272
WIRE -688 -208 -688 -384
WIRE -288 -208 -688 -208
WIRE 704 -208 704 -384
WIRE 704 -208 320 -208
WIRE -912 -144 -912 -432
WIRE -704 -144 -912 -144
WIRE -912 -128 -912 -144
WIRE -704 -128 -704 -144
WIRE -288 -128 -704 -128
WIRE 896 -128 896 -432
WIRE 896 -128 320 -128
WIRE -912 -32 -912 -48
WIRE -288 -32 -912 -32
WIRE 960 -32 960 -176
WIRE 960 -32 320 -32
WIRE 1024 -32 960 -32
WIRE 1136 -32 1104 -32
WIRE -912 -16 -912 -32
WIRE 1184 48 1184 -432
WIRE 1184 48 1104 48
WIRE -512 64 -544 64
WIRE -416 64 -448 64
WIRE -288 64 -416 64
WIRE 1104 64 1104 48
WIRE 1104 64 320 64
WIRE 1184 64 1184 48
WIRE -912 80 -912 64
WIRE -416 160 -416 64
WIRE -400 160 -416 160
WIRE -288 160 -320 160
WIRE 1104 160 320 160
WIRE 1104 176 1104 160
WIRE 1184 176 1184 144
WIRE 1184 176 1104 176
WIRE 1184 240 1184 176
WIRE -560 256 -592 256
WIRE -448 256 -496 256
WIRE -336 256 -448 256
WIRE -288 256 -336 256
WIRE 1136 256 320 256
WIRE -448 304 -448 256
WIRE -336 352 -336 256
WIRE -288 352 -336 352
WIRE 528 352 320 352
WIRE 672 352 608 352
WIRE 1184 384 1184 336
WIRE -448 448 -448 384
WIRE -288 448 -448 448
WIRE 368 448 320 448
WIRE 496 448 448 448
WIRE -448 464 -448 448
WIRE 1184 480 1184 448
WIRE 336 528 320 528
WIRE -448 560 -448 544
WIRE 208 640 208 624
WIRE -176 656 -176 624
WIRE 16 656 16 624
WIRE -176 736 -176 720
WIRE 16 736 16 720
WIRE 208 736 208 720
FLAG 336 528 0
FLAG -176 736 0
FLAG 208 736 0
FLAG 16 736 0
FLAG -1200 -320 0
FLAG -912 80 0
FLAG 1184 480 0
FLAG 1184 -432 OUT
FLAG 1040 -336 0
FLAG -1200 -432 IN
FLAG -480 -240 0
FLAG 512 -240 0
FLAG 1136 -32 0
FLAG 496 448 0
FLAG -544 64 0
FLAG -592 256 0
FLAG -448 560 0
FLAG 672 352 0
SYMBOL cap -192 656 R0
SYMATTR InstName C1
SYMATTR Value 10n
SYMBOL cap 0 656 R0
WINDOW 3 38 33 Left 2
WINDOW 39 27 59 Left 2
SYMATTR Value 10n
SYMATTR SpiceLine Rser=2.21K
SYMATTR InstName C2
SYMBOL voltage -1200 -432 R0
WINDOW 123 0 0 Left 2
WINDOW 39 0 0 Left 2
SYMATTR InstName V1
SYMATTR Value PWL(0 0 0.1m 12)
SYMBOL res -48 -528 R270
WINDOW 0 32 56 VTop 2
WINDOW 3 0 56 VBottom 2
SYMATTR InstName R1
SYMATTR Value 4m
SYMBOL res -928 -144 R0
SYMATTR InstName R2
SYMATTR Value 383K
SYMBOL cap -368 -448 R90
WINDOW 0 0 32 VBottom 2
WINDOW 3 32 32 VTop 2
SYMATTR InstName C3
SYMATTR Value 0.1µ
SYMBOL nmos -768 -384 R270
WINDOW 0 58 38 VTop 2
WINDOW 3 -17 72 VLeft 2
SYMATTR InstName Q1
SYMATTR Value BSC067N06LS3
SYMBOL nmos -432 -368 M0
WINDOW 0 55 27 Left 2
WINDOW 3 58 76 Left 2
SYMATTR InstName Q2
SYMATTR Value BSC100N06LS3
SYMBOL ind 80 -528 R270
WINDOW 0 32 56 VTop 2
WINDOW 3 5 56 VBottom 2
SYMATTR InstName L1
SYMATTR Value 10µ
SYMATTR SpiceLine Rser=2m
SYMBOL res 1168 48 R0
SYMATTR InstName R3
SYMATTR Value 50m
SYMBOL LED 1168 384 R0
WINDOW 123 29 70 Left 2
WINDOW 3 79 38 Left 2
SYMATTR Value2 N=7
SYMATTR Value LUW-W5AP
SYMATTR InstName D1
SYMATTR Description Diode
SYMATTR Type diode
SYMBOL cap 1024 -416 R0
WINDOW 123 29 64 Left 2
WINDOW 3 36 35 Left 2
SYMATTR Value2 x2
SYMATTR Value 10µ
SYMATTR InstName C4
SYMATTR SpiceLine Rser=4m
SYMBOL res -928 -32 R0
SYMATTR InstName R4
SYMATTR Value 165K
SYMBOL nmos 784 -384 M270
WINDOW 0 54 45 VTop 2
WINDOW 3 -10 71 VLeft 2
SYMATTR InstName Q3
SYMATTR Value BSC093N04LS
SYMBOL nmos 464 -368 R0
WINDOW 0 55 27 Left 2
WINDOW 3 58 76 Left 2
SYMATTR InstName Q4
SYMATTR Value BSC093N04LS
SYMBOL cap 464 -448 R90
WINDOW 0 0 32 VBottom 2
WINDOW 3 32 32 VTop 2
SYMATTR InstName C5
SYMATTR Value 0.1µ
SYMBOL pmos 1136 336 M180
WINDOW 0 58 57 Left 2
WINDOW 3 59 20 Left 2
SYMATTR InstName Q5
SYMATTR Value FDS4885C_P
SYMBOL res 192 624 R0
SYMATTR InstName R5
SYMATTR Value 100K
SYMBOL res 944 -160 M180
WINDOW 0 36 76 Left 2
WINDOW 3 36 40 Left 2
SYMATTR InstName R6
SYMATTR Value 1Meg
SYMBOL res 1008 -48 M90
WINDOW 0 0 56 VBottom 2
WINDOW 3 32 56 VTop 2
SYMATTR InstName R7
SYMATTR Value 34.8K
SYMBOL res 352 464 R270
WINDOW 0 32 56 VTop 2
WINDOW 3 0 56 VBottom 2
SYMATTR InstName R8
SYMATTR Value 1K
SYMBOL cap -448 48 R90
WINDOW 0 0 32 VBottom 2
WINDOW 3 32 32 VTop 2
SYMATTR InstName C6
SYMATTR Value 4.7µ
SYMBOL res -416 176 R270
WINDOW 0 32 56 VTop 2
WINDOW 3 0 56 VBottom 2
SYMATTR InstName R9
SYMATTR Value 100K
SYMBOL cap -496 240 R90
WINDOW 0 0 32 VBottom 2
WINDOW 3 32 32 VTop 2
SYMATTR InstName C7
SYMATTR Value 0.47µ
SYMBOL res -464 448 R0
SYMATTR InstName R10
SYMATTR Value 100K
SYMBOL LT8391 16 80 R0
SYMATTR InstName U1
SYMBOL res -464 288 R0
SYMATTR InstName R11
SYMATTR Value 280K
SYMBOL voltage 512 352 R270
WINDOW 0 32 56 VTop 2
WINDOW 3 -32 91 VBottom 2
WINDOW 123 0 0 Left 2
WINDOW 39 0 0 Left 2
SYMATTR InstName V2
SYMATTR Value PULSE(0 5 1m 1u 1u 2m 3m)
TEXT 728 656 Left 2 !.tran 4.5m startup
