Version 4
SHEET 1 1444 772
WIRE -944 -208 -1072 -208
WIRE -816 -208 -864 -208
WIRE -704 -208 -816 -208
WIRE -1072 -192 -1072 -208
WIRE -816 -192 -816 -208
WIRE -704 -192 -704 -208
WIRE -208 -176 -400 -176
WIRE 64 -176 -144 -176
WIRE -1072 -96 -1072 -112
WIRE -816 -96 -816 -128
WIRE -704 -96 -704 -128
WIRE -400 -96 -400 -176
WIRE -368 -96 -400 -96
WIRE -256 -96 -288 -96
WIRE -144 -96 -256 -96
WIRE -80 -96 -144 -96
WIRE 64 -96 64 -176
WIRE 64 -96 0 -96
WIRE 432 -96 64 -96
WIRE -256 -80 -256 -96
WIRE -144 -80 -144 -96
WIRE 64 -80 64 -96
WIRE -944 0 -1072 0
WIRE -816 0 -864 0
WIRE -704 0 -816 0
WIRE -1072 16 -1072 0
WIRE -816 16 -816 0
WIRE -704 16 -704 0
WIRE -256 16 -256 -16
WIRE -144 16 -144 0
WIRE -144 16 -256 16
WIRE -32 16 -48 16
WIRE 64 16 64 0
WIRE 64 16 48 16
WIRE 176 16 64 16
WIRE 288 16 240 16
WIRE -144 32 -144 16
WIRE -512 64 -528 64
WIRE -400 64 -400 -96
WIRE -400 64 -432 64
WIRE -352 64 -400 64
WIRE -240 64 -288 64
WIRE -1072 112 -1072 96
WIRE -816 112 -816 80
WIRE -704 112 -704 80
WIRE -144 112 -144 96
WIRE 64 128 64 16
WIRE 112 128 64 128
WIRE 288 160 288 16
WIRE 288 160 272 160
WIRE 320 160 288 160
WIRE 432 160 432 -96
WIRE 432 160 400 160
WIRE 480 160 432 160
WIRE 576 160 560 160
WIRE -400 176 -400 64
WIRE -336 176 -400 176
WIRE 432 176 432 160
WIRE -240 192 -240 64
WIRE -240 192 -272 192
WIRE -112 192 -240 192
WIRE 112 192 -32 192
WIRE -544 208 -1072 208
WIRE -512 208 -544 208
WIRE -400 208 -432 208
WIRE -336 208 -400 208
WIRE -1072 224 -1072 208
WIRE -544 224 -544 208
WIRE -400 224 -400 208
WIRE 432 272 432 240
WIRE -1072 320 -1072 304
WIRE -544 320 -544 304
WIRE -400 320 -400 288
FLAG 576 160 OUT
FLAG 128 80 V1+
FLAG -1072 -208 V1+
FLAG -528 64 0
FLAG -144 112 0
FLAG 176 240 0
FLAG 432 272 0
FLAG -1072 -96 0
FLAG -1072 112 0
FLAG -1072 0 V1-
FLAG 128 240 V1-
FLAG -1072 320 0
FLAG -544 320 0
FLAG -400 320 0
FLAG -48 16 0
FLAG -1072 208 IN
FLAG -816 -96 0
FLAG -704 -96 0
FLAG -704 -208 V2+
FLAG -816 112 0
FLAG -704 112 0
FLAG -704 0 V2-
FLAG -304 160 V2+
FLAG -304 224 V2-
SYMBOL voltage -1072 208 R0
WINDOW 123 24 138 Left 2
WINDOW 39 24 117 Left 2
SYMATTR Value PULSE(0 .5m .2m 100u 100u 100u 400u)
SYMATTR InstName V1
SYMBOL voltage -1072 -208 R0
WINDOW 123 24 138 Left 2
WINDOW 39 24 117 Left 2
SYMATTR InstName V2
SYMATTR Value PWL(0 0 20u 70)
SYMBOL voltage -1072 112 M180
WINDOW 123 24 -26 Left 2
WINDOW 39 24 -5 Left 2
WINDOW 0 24 96 Left 2
WINDOW 3 24 16 Left 2
SYMATTR InstName V3
SYMATTR Value PWL(0 0 20u 70)
SYMBOL res 48 -96 R0
SYMATTR InstName R1
SYMATTR Value 100K
SYMBOL res 64 0 R90
WINDOW 0 0 56 VBottom 2
WINDOW 3 32 56 VTop 2
SYMATTR InstName R2
SYMATTR Value 3.32K
SYMBOL cap 240 0 R90
WINDOW 0 0 32 VBottom 2
WINDOW 3 32 32 VTop 2
SYMATTR InstName C1
SYMATTR Value 47p
SYMBOL Opamps\\LTC2054 -304 192 R0
SYMATTR InstName U2
SYMBOL res -560 208 R0
SYMATTR InstName R3
SYMATTR Value 10Meg
SYMBOL res -528 224 R270
WINDOW 0 32 56 VTop 2
WINDOW 3 0 56 VBottom 2
SYMATTR InstName R4
SYMATTR Value 1K
SYMBOL res -416 48 R90
WINDOW 0 0 56 VBottom 2
WINDOW 3 32 56 VTop 2
SYMATTR InstName R5
SYMATTR Value 1K
SYMBOL res -272 -112 R90
WINDOW 0 0 56 VBottom 2
WINDOW 3 32 56 VTop 2
SYMATTR InstName R6
SYMATTR Value 49.9K
SYMBOL res 16 -112 R90
WINDOW 0 0 56 VBottom 2
WINDOW 3 32 56 VTop 2
SYMATTR InstName R7
SYMATTR Value 48.7K
SYMBOL res -160 -96 R0
SYMATTR InstName R8
SYMATTR Value 2.74K
SYMBOL res 464 176 R270
WINDOW 0 32 56 VTop 2
WINDOW 3 0 56 VBottom 2
SYMATTR InstName R9
SYMATTR Value 49.9
SYMBOL cap -272 -80 R0
SYMATTR InstName C2
SYMATTR Value 4700p
SYMBOL res -128 208 R270
WINDOW 0 32 56 VTop 2
WINDOW 3 0 56 VBottom 2
SYMATTR InstName R12
SYMATTR Value 3.32K
SYMBOL cap -144 -192 R90
WINDOW 0 0 32 VBottom 2
WINDOW 3 32 32 VTop 2
SYMATTR InstName C3
SYMATTR Value 22p
SYMBOL cap -416 224 R0
SYMATTR InstName C4
SYMATTR Value 22p
SYMBOL cap -288 48 R90
WINDOW 0 0 32 VBottom 2
WINDOW 3 32 32 VTop 2
SYMATTR InstName C7
SYMATTR Value 2p
SYMBOL res 304 176 R270
WINDOW 0 32 56 VTop 2
WINDOW 3 0 56 VBottom 2
SYMATTR InstName R13
SYMATTR Value 1K
SYMBOL cap 416 176 R0
SYMATTR InstName C8
SYMATTR Value 470p
SYMBOL LTC6090 176 160 R0
SYMATTR InstName U1
SYMBOL Misc\\jumper -64 64 R90
SYMATTR InstName J1
SYMBOL zener -832 -128 M180
WINDOW 0 24 64 Left 2
WINDOW 3 24 0 Left 2
SYMATTR InstName D3
SYMATTR Value 1N750
SYMATTR Description Diode
SYMATTR Type diode
SYMBOL res -960 -192 R270
WINDOW 0 32 56 VTop 2
WINDOW 3 0 56 VBottom 2
SYMATTR InstName R14
SYMATTR Value 100K
SYMBOL cap -720 -192 R0
SYMATTR InstName C9
SYMATTR Value 100n
SYMBOL zener -832 80 M180
WINDOW 0 24 64 Left 2
WINDOW 3 24 0 Left 2
SYMATTR InstName D4
SYMATTR Value 1N750
SYMATTR Description Diode
SYMATTR Type diode
SYMBOL res -960 16 R270
WINDOW 0 32 56 VTop 2
WINDOW 3 0 56 VBottom 2
SYMATTR InstName R15
SYMATTR Value 100K
SYMBOL cap -720 80 M180
WINDOW 0 24 56 Left 2
WINDOW 3 24 8 Left 2
SYMATTR InstName C10
SYMATTR Value 100n
TEXT 472 304 Left 2 !.tran 0 1m .2m
TEXT -48 96 Center 2 ;Av=1000
TEXT -832 368 Left 2 ;Notes:\n  If the simulation model is not found please update with the "Sync Release" command from the "Tools" menu.\n  It remains the customer's responsibility to verify proper and reliable operation in the actual application.\n  Component substitution and printed circuit board layout may significantly affect circuit performance or reliability.\n  Contact your local sales representative for assistance. This circuit is distributed to customers only for use with LTC parts.\n  Copyright © 2014 Linear Technology Inc. All rights reserved.
TEXT -184 -232 Bottom 2 ;LTC6090 - 140V CMOS Rail-to-Rail Output, Picoamp Input Current Op Amp\nLTC2054 - Single Micropower Zero-Drift Operational Amplifiers\nµVolt Preamplifier for a Digital Voltmeter\nFor Av=100 - >    Input: ±700mV      Output: -3dB at 120kHz \nFor Av=1000 - >     Input: ±70mV     Output: -3dB at 12kHz
