Version 4
SHEET 1 1544 908
WIRE 256 0 144 0
WIRE 416 0 320 0
WIRE -560 16 -560 0
WIRE -432 16 -432 0
WIRE -560 112 -560 96
WIRE -432 112 -432 96
WIRE 192 112 192 96
WIRE -320 160 -336 160
WIRE -128 160 -240 160
WIRE 32 160 -128 160
WIRE 144 160 144 0
WIRE 144 160 112 160
WIRE 176 160 144 160
WIRE 416 192 416 0
WIRE 416 192 336 192
WIRE 432 192 416 192
WIRE 416 208 416 192
WIRE 176 224 144 224
WIRE 192 288 192 272
WIRE 416 304 416 288
FLAG -560 112 0
FLAG -432 112 0
FLAG 144 224 0
FLAG 432 192 OUT
FLAG -336 160 0
FLAG 416 304 0
FLAG -128 160 IN
FLAG -560 0 +V
FLAG 192 96 +V
FLAG -432 0 -V
FLAG 192 288 -V
SYMBOL Opamps\\LTC6090 240 192 R0
WINDOW 3 39 56 Left 2
SYMATTR InstName U1
SYMBOL voltage -432 0 R0
WINDOW 123 24 138 Left 2
WINDOW 39 24 117 Left 2
SYMATTR InstName V1
SYMATTR Value -70V
SYMBOL cap 320 -16 R90
WINDOW 0 0 32 VBottom 2
WINDOW 3 32 32 VTop 2
SYMATTR InstName C1
SYMATTR Value 0.047µ
SYMBOL res 128 144 R90
WINDOW 0 0 56 VBottom 2
WINDOW 3 32 56 VTop 2
SYMATTR InstName R1
SYMATTR Value 1Meg
SYMBOL voltage -224 160 R90
WINDOW 123 74 56 VTop 2
WINDOW 39 53 56 VTop 2
WINDOW 0 -32 56 VBottom 2
WINDOW 3 32 56 VTop 2
SYMATTR InstName V2
SYMATTR Value PWL(.1 -30 +.1m 30 +.2 30 +.1m -30 +.1 -30 +.1m 0)
SYMBOL res 400 192 R0
SYMATTR InstName R2
SYMATTR Value 100K
SYMBOL voltage -560 0 R0
WINDOW 123 24 138 Left 2
WINDOW 39 24 117 Left 2
SYMATTR InstName V3
SYMATTR Value +70
TEXT 512 312 Left 2 !.tran .5
TEXT -8 -72 Bottom 2 ;LTC6090 - 140V CMOS Rail-to-Rail Output, Picoamp Input Current Op Amp\nWide Dynamic Input-Output Range High Voltage Integrator
TEXT -640 336 Left 2 ;Note:\n  If the simulation model is not found please update with the "Sync Release" command from the "Tools" menu.\n  It remains the customer's responsibility to verify proper and reliable operation in the actual application.\n  Component substitution and printed circuit board layout may significantly affect circuit performance or reliability.\n  Contact your local sales representative for assistance. This circuit is distributed to customers only for use with LTC parts.\n  Copyright © 2013 Linear Technology Inc. All rights reserved.
