Version 4
SHEET 1 1340 680
WIRE -208 -272 -208 -288
WIRE -224 -224 -528 -224
WIRE -528 -192 -528 -224
WIRE 16 -192 -64 -192
WIRE 144 -192 16 -192
WIRE 256 -192 144 -192
WIRE -224 -160 -256 -160
WIRE 16 -160 16 -192
WIRE 144 -160 144 -192
WIRE 560 -160 560 -176
WIRE -208 -96 -208 -112
WIRE -160 -96 -160 -112
WIRE -112 -96 -112 -112
WIRE -112 -96 -160 -96
WIRE 320 -80 304 -80
WIRE 560 -80 560 -96
WIRE 560 -80 512 -80
WIRE 640 -64 640 -80
WIRE -256 -48 -256 -160
WIRE 16 -48 16 -96
WIRE 16 -48 -256 -48
WIRE 144 -48 144 -80
WIRE 144 -48 16 -48
WIRE 144 -16 144 -48
WIRE 256 -16 256 -192
WIRE 320 -16 256 -16
WIRE 560 -16 560 -80
WIRE 560 -16 512 -16
WIRE 624 -16 560 -16
WIRE -448 0 -448 -16
WIRE -336 0 -336 -16
WIRE 848 16 784 16
WIRE -672 32 -688 32
WIRE -528 32 -528 -112
WIRE -528 32 -592 32
WIRE 320 48 256 48
WIRE 560 48 512 48
WIRE 624 48 560 48
WIRE -448 96 -448 80
WIRE -336 96 -336 80
WIRE 16 96 -256 96
WIRE 144 96 144 64
WIRE 144 96 16 96
WIRE 320 112 304 112
WIRE 560 112 560 48
WIRE 560 112 512 112
WIRE 640 112 640 96
WIRE 688 112 688 96
WIRE 736 112 736 96
WIRE 736 112 688 112
WIRE 144 128 144 96
WIRE 560 128 560 112
WIRE -112 144 -160 144
WIRE 16 144 16 96
WIRE -528 160 -528 32
WIRE -208 160 -208 144
WIRE -160 160 -160 144
WIRE -112 160 -112 144
WIRE -256 208 -256 96
WIRE -224 208 -256 208
WIRE 304 208 304 112
WIRE 560 208 560 192
WIRE 560 208 304 208
WIRE 848 208 848 16
WIRE 848 208 560 208
WIRE 16 240 16 208
WIRE 16 240 -64 240
WIRE 144 240 144 208
WIRE 144 240 16 240
WIRE 256 240 256 48
WIRE 256 240 144 240
WIRE -528 272 -528 240
WIRE -224 272 -528 272
WIRE -208 336 -208 320
FLAG -336 96 0
FLAG -336 -16 -V
FLAG -448 96 0
FLAG -448 -16 +V
FLAG 304 -80 0
FLAG 560 -176 0
FLAG 640 112 +V
FLAG -208 144 +V
FLAG -208 -96 +V
FLAG 640 -80 -V
FLAG -208 336 -V
FLAG -208 -288 -V
FLAG -528 -224 +IN
FLAG -528 272 -IN
FLAG 848 16 OUT
FLAG -688 32 0
SYMBOL voltage -336 -16 R0
SYMATTR InstName V1
SYMATTR Value -70
SYMBOL voltage -448 -16 R0
SYMATTR InstName V2
SYMATTR Value 70
SYMBOL Opamps\\LTC6090 688 16 M180
WINDOW 0 51 41 Left 2
WINDOW 3 54 -40 Left 2
SYMATTR InstName U2
SYMBOL Misc\\LT5400-2 416 16 M180
SYMATTR InstName U3
SYMBOL cap 544 -96 M180
WINDOW 0 24 56 Left 2
WINDOW 3 24 8 Left 2
SYMATTR InstName C2
SYMATTR Value 22p
SYMBOL cap 544 192 M180
WINDOW 0 24 56 Left 2
WINDOW 3 24 8 Left 2
SYMATTR InstName C3
SYMATTR Value 22p
SYMBOL Opamps\\LTC6090 -160 -192 M180
WINDOW 0 60 36 Left 2
WINDOW 3 55 -47 Left 2
SYMATTR InstName U1
SYMBOL Opamps\\LTC6090 -160 240 R0
SYMATTR InstName U4
SYMBOL res 128 112 R0
SYMATTR InstName R3
SYMATTR Value 100K
SYMBOL res 128 -32 R0
SYMATTR InstName R5
SYMATTR Value 24.9K
SYMBOL res 128 -176 R0
SYMATTR InstName R6
SYMATTR Value 100K
SYMBOL cap 0 -160 R0
SYMATTR InstName C1
SYMATTR Value 22p
SYMBOL cap 0 144 R0
SYMATTR InstName C4
SYMATTR Value 22p
SYMBOL voltage -528 -208 R0
WINDOW 123 0 0 Left 2
WINDOW 39 24 44 Left 2
SYMATTR InstName V3
SYMATTR Value SINE(0 .01 10K)
SYMBOL voltage -528 256 M180
WINDOW 123 24 -26 Left 2
WINDOW 39 24 -5 Left 2
WINDOW 0 24 96 Left 2
WINDOW 3 24 16 Left 2
SYMATTR InstName V4
SYMATTR Value SINE(0 -.01 10K)
SYMBOL voltage -576 32 R90
WINDOW 123 74 56 VTop 2
WINDOW 39 53 56 VTop 2
WINDOW 0 -32 56 VBottom 2
WINDOW 3 32 56 VTop 2
SYMATTR InstName V5
SYMATTR Value SINE(0 .1 60)
TEXT 720 264 Left 2 !.tran 16m
TEXT 200 -328 Bottom 2 ;LTC6090 - 140V CMOS Rail-to-Rail Output, Picoamp Input Current Op Amp\nLT5400 - Quad Matched Resistor Network\nWide Common Mode Range 10x Gain Instrumentation Amplifier (<1mV Input-Referred Error)\nInput: 13.9Vp-p Max Differential, ±67V Max Common-Mode (18kHz Max for 140Vp-p Output)      Output: Gain Av = 10 (-3dB at 45kHz)
TEXT -448 352 Left 2 ;Note:\n  If the simulation model is not found please update with the "Sync Release" command from the "Tools" menu.\n  It remains the customer's responsibility to verify proper and reliable operation in the actual application.\n  Component substitution and printed circuit board layout may significantly affect circuit performance or reliability.\n  Contact your local sales representative for assistance. This circuit is distributed to customers only for use with LTC parts.\n  Copyright © 2013 Linear Technology Inc. All rights reserved.
