Version 4
SHEET 1 880 680
WIRE -704 -1376 -736 -1376
WIRE -640 -1376 -704 -1376
WIRE -496 -1376 -640 -1376
WIRE -400 -1376 -432 -1376
WIRE -384 -1376 -400 -1376
WIRE -496 -1312 -560 -1312
WIRE -400 -1312 -432 -1312
WIRE -384 -1312 -400 -1312
WIRE -736 -1280 -736 -1376
WIRE -560 -1280 -560 -1312
WIRE -640 -1264 -640 -1376
WIRE -736 -1184 -736 -1200
WIRE -640 -1184 -640 -1216
WIRE -560 -1184 -560 -1200
WIRE -272 -1104 -304 -1104
WIRE -240 -1104 -272 -1104
WIRE -16 -1104 -48 -1104
WIRE -272 -1072 -272 -1104
WIRE -16 -1072 -48 -1072
WIRE -272 -960 -272 -992
WIRE -272 -960 -384 -960
WIRE -160 -960 -272 -960
WIRE -384 -928 -384 -960
WIRE -160 -928 -160 -960
WIRE -480 -880 -512 -880
WIRE -448 -880 -480 -880
WIRE -64 -880 -96 -880
WIRE -32 -880 -64 -880
WIRE -272 -848 -304 -848
WIRE -240 -848 -272 -848
WIRE -272 -784 -272 -848
WIRE -160 -784 -160 -832
WIRE -64 -784 -160 -784
WIRE 0 -784 -64 -784
WIRE 0 -768 0 -784
WIRE -384 -736 -384 -832
WIRE -336 -736 -384 -736
WIRE -384 -688 -384 -736
WIRE -160 -688 -160 -784
WIRE 0 -672 0 -688
WIRE -272 -640 -272 -688
WIRE -272 -640 -320 -640
WIRE -224 -640 -272 -640
WIRE -384 -576 -384 -592
WIRE -384 -576 -432 -576
WIRE -272 -576 -272 -640
WIRE -160 -576 -160 -592
WIRE -96 -576 -160 -576
WIRE -384 -560 -384 -576
WIRE -160 -560 -160 -576
WIRE 176 -528 160 -528
WIRE 208 -528 176 -528
WIRE 176 -480 160 -480
WIRE 208 -480 176 -480
WIRE -432 -448 -432 -576
WIRE -384 -448 -384 -480
WIRE -288 -448 -384 -448
WIRE -272 -448 -272 -496
WIRE -272 -448 -288 -448
WIRE -160 -448 -160 -480
WIRE -160 -448 -272 -448
WIRE -96 -448 -96 -576
WIRE -272 -432 -272 -448
WIRE -464 -368 -464 -400
WIRE -432 -368 -432 -400
WIRE -432 -368 -464 -368
WIRE -400 -368 -432 -368
WIRE -272 -368 -272 -384
WIRE -272 -368 -320 -368
WIRE -208 -368 -272 -368
WIRE -96 -368 -96 -400
WIRE -96 -368 -128 -368
WIRE -64 -368 -64 -400
WIRE -64 -368 -96 -368
WIRE -272 -336 -272 -368
WIRE -272 -336 -304 -336
WIRE -304 -320 -304 -336
WIRE -304 -256 -304 -272
WIRE -272 -256 -272 -272
FLAG -272 -1104 Vplus
FLAG -288 -448 Vmin
FLAG -480 -880 Ue1
FLAG -64 -880 Ue2
FLAG -64 -784 Ua2fp
FLAG 0 -672 0
FLAG -272 -848 Vplus
FLAG -384 -576 offs1f
FLAG -160 -576 offs2f
FLAG -272 -256 Vplus
FLAG -16 -1104 Vplus
FLAG -16 -1072 Vmin
FLAG -736 -1184 0
FLAG -704 -1376 sweep
FLAG -560 -1184 0
FLAG -640 -1184 0
FLAG -400 -1376 Ue1
FLAG -400 -1312 Ue2
FLAG -464 -448 Vmin
FLAG -64 -448 Vplus
FLAG -304 -256 Vmin
FLAG 176 -528 pl
FLAG 176 -480 pr
SYMBOL EIT_Semiconductors\\pnp -448 -832 M180
SYMATTR InstName Q1
SYMATTR Value BC557B
SYMBOL EIT_Semiconductors\\pnp -96 -832 R180
SYMATTR InstName Q2
SYMATTR Value BC557B
SYMBOL source-I -272 -992 R180
WINDOW 123 0 0 Left 2
WINDOW 39 29 47 Left 2
SYMATTR SpiceLine load
SYMATTR InstName I1
SYMATTR Value 20u
SYMBOL EIT_Semiconductors\\npn -320 -688 M0
WINDOW 3 52 57 Left 2
SYMATTR Value BC546B
SYMATTR InstName T1
SYMBOL EIT_Semiconductors\\npn -224 -688 R0
WINDOW 3 52 57 Left 2
SYMATTR Value BC546B
SYMATTR InstName T2
SYMBOL res -16 -784 R0
SYMATTR InstName R1
SYMATTR Value 5k
SYMBOL EIT_Semiconductors\\npn -336 -784 R0
WINDOW 3 52 57 Left 2
SYMATTR Value BC546B
SYMATTR InstName T3
SYMBOL res -400 -576 R0
SYMATTR InstName R2
SYMATTR Value 50
SYMBOL res -176 -576 R0
SYMATTR InstName R3
SYMATTR Value 50
SYMBOL res -304 -384 R90
WINDOW 0 7 56 VBottom 2
WINDOW 3 31 80 VTop 2
SYMATTR InstName R4
SYMATTR Value {Rp*setf+1u}
SYMBOL res -112 -384 R90
WINDOW 0 7 56 VBottom 2
WINDOW 3 25 56 VTop 2
SYMATTR InstName R5
SYMATTR Value {Rp*(1-setf)+1u}
SYMBOL res -288 -592 R0
SYMATTR InstName R6
SYMATTR Value 50k
SYMBOL MDB_sym\\jumper -496 -416 M90
SYMATTR InstName X1
SYMBOL MDB_sym\\jumper -32 -416 R90
SYMATTR InstName X2
SYMBOL MDB_sym\\source-Vmarker -48 -1104 R0
SYMATTR Value V={Vsup}
SYMATTR InstName U1
SYMBOL MDB_sym\\source-Vmarker -48 -1072 R0
SYMATTR Value V={-Vsup}
SYMATTR InstName U2
SYMBOL source-V -736 -1296 R0
WINDOW 123 28 109 Left 2
WINDOW 39 0 0 Left 2
SYMATTR Value2 AC 1
SYMATTR InstName V1
SYMATTR Value 0
SYMBOL crtl-V-V -560 -1296 R0
SYMATTR InstName E1
SYMATTR Value -1
SYMBOL Misc\\jumper -464 -1440 R0
SYMATTR InstName X3
SYMBOL Misc\\jumper -464 -1376 R0
SYMATTR InstName X4
SYMBOL MDB_sym\\jumper -368 -288 M90
SYMATTR InstName X5
SYMBOL MDB_sym\\source-Vmarker 160 -528 R0
SYMATTR Value V={Rp*setf+1u}
SYMATTR InstName U3
SYMBOL MDB_sym\\source-Vmarker 160 -480 R0
SYMATTR Value V={Rp*(1-setf)+1u}
SYMATTR InstName U4
TEXT -808 -272 Left 2 ;Differenzverstärker mit\nUnsymmetrischem Ausgang.\nund aktiver Last statt Kollektor-\nWiderstand: Strom des wegfallenden\nAusgangs wird auf andere Seite gespiegelt
TEXT -304 -1216 Left 5 ;(F pnp)
TEXT -696 -1072 Left 2 !.param Rp=1k\n.param setf = 0.01\n.param vsup = 10\n.param Ioff1f = -8.4474886u*0
TEXT -808 -808 Left 2 !.step param setf 0.01 0.99 0.2\n;.step param Rp list 1k 10k 50k 100k
TEXT -752 -752 Left 2 ;.step param Ioff1f -25u 25u 2u
TEXT -768 -872 Left 2 ;.tran 10m
TEXT -768 -840 Left 2 !.dc V1 -150m 150m 1m
TEXT -656 -872 Left 2 !.op
TEXT -904 -600 Left 2 ;.step param Rp list 100 1k 10k 100k
