Version 4
SHEET 1 2388 680
WIRE 848 -880 832 -880
WIRE 832 -832 832 -880
WIRE 1104 -800 1088 -800
WIRE 1120 -800 1104 -800
WIRE 1104 -752 1088 -752
WIRE 1120 -752 1104 -752
WIRE 832 -736 832 -752
WIRE 1104 -704 1088 -704
WIRE 1120 -704 1104 -704
WIRE 896 -416 880 -416
WIRE 992 -416 976 -416
WIRE 1072 -416 1056 -416
WIRE 1136 -416 1072 -416
WIRE 1168 -416 1136 -416
WIRE 1280 -416 1248 -416
WIRE 1296 -416 1280 -416
WIRE 1424 -416 1424 -464
WIRE 1424 -416 1296 -416
WIRE 1456 -416 1424 -416
WIRE 1504 -416 1456 -416
WIRE 1536 -416 1504 -416
WIRE 1696 -416 1680 -416
WIRE 1712 -416 1696 -416
WIRE 1072 -384 1072 -416
WIRE 1136 -384 1136 -416
WIRE 1424 -384 1424 -416
WIRE 1504 -384 1504 -416
WIRE 1296 -368 1296 -416
WIRE 1072 -272 1072 -304
WIRE 1136 -272 1136 -304
WIRE 1296 -272 1296 -336
WIRE 1424 -272 1424 -320
WIRE 1504 -272 1504 -304
WIRE 1008 48 992 48
WIRE 1024 48 1008 48
WIRE 192 64 48 64
WIRE 1008 96 992 96
WIRE 1024 96 1008 96
WIRE 48 112 48 64
WIRE 192 112 192 64
WIRE 448 128 448 80
WIRE 1008 144 992 144
WIRE 1024 144 1008 144
WIRE 1584 144 1536 144
WIRE 1648 144 1584 144
WIRE 1536 160 1536 144
WIRE 1888 176 1792 176
WIRE 1984 176 1888 176
WIRE 1088 208 1056 208
WIRE 1120 208 1088 208
WIRE 1792 208 1792 176
WIRE 1888 208 1888 176
WIRE 1984 208 1984 176
WIRE 48 224 48 192
WIRE 192 224 192 192
WIRE 448 240 448 208
WIRE 1056 240 1056 208
WIRE 1648 240 1648 144
WIRE 1536 288 1536 240
WIRE 1792 320 1792 288
WIRE 1888 320 1888 288
WIRE 1888 320 1792 320
WIRE 1984 320 1984 272
WIRE 1984 320 1888 320
WIRE 1056 352 1056 320
WIRE 1888 352 1888 320
WIRE 1536 384 1536 368
WIRE 1648 384 1648 304
WIRE 1648 384 1536 384
WIRE 1536 400 1536 384
FLAG 48 224 0
FLAG 192 224 0
FLAG 448 240 0
FLAG 1104 -800 Rb
FLAG 1104 -752 Re
FLAG 832 -736 0
FLAG 832 -880 Vmic
FLAG 1424 -272 0
FLAG 1504 -272 0
FLAG 1136 -272 0
FLAG 880 -416 Vmic
FLAG 1072 -272 0
FLAG 1296 -272 0
FLAG 1280 -416 in2
FLAG 1456 -416 h
FLAG 1104 -704 rpi
FLAG 1008 96 RLp
FLAG 1536 400 0
FLAG 1888 352 0
FLAG 1584 144 A
FLAG 1888 176 B
FLAG 1008 144 fosc
FLAG 1008 48 RLs
FLAG 1056 352 0
FLAG 1088 208 stim
FLAG 1712 -400 0
FLAG 1696 -416 0
SYMBOL source-V 48 96 R0
WINDOW 123 0 0 Left 2
WINDOW 39 0 0 Left 2
SYMATTR InstName V1
SYMATTR Value 1
SYMBOL res 176 96 R0
SYMATTR InstName R2
SYMATTR Value 10
SYMBOL res 432 112 R0
SYMATTR InstName R1
SYMATTR Value 10
SYMBOL source-Vmarker 448 80 R0
SYMATTR Value V={Ve}
SYMATTR InstName U1
SYMBOL source-Vmarker 1088 -800 M180
SYMATTR InstName U2
SYMATTR Value V={Rb}
SYMBOL source-Vmarker 1088 -752 M180
SYMATTR InstName U3
SYMATTR Value V={Re}
SYMBOL source-Vmarker 1088 -704 M180
SYMATTR InstName U4
SYMATTR Value V={rpi}
SYMBOL source-V 832 -848 M0
WINDOW 123 0 0 Left 2
WINDOW 39 0 0 Left 2
WINDOW 3 -75 152 Left 2
SYMATTR Value {Vcc/2+Umic}
SYMATTR InstName V2
SYMBOL ind 1520 -400 R270
WINDOW 0 32 56 VTop 2
WINDOW 3 5 56 VBottom 2
WINDOW 39 58 54 VTop 2
SYMATTR InstName L1
SYMATTR Value {Ls}
SYMATTR SpiceLine Rser=1.5
SYMBOL cap 1408 -384 R0
SYMATTR InstName C1
SYMATTR Value 47p
SYMBOL cap 1616 -432 M90
WINDOW 0 0 32 VBottom 2
WINDOW 3 32 32 VTop 2
SYMATTR InstName C2
SYMATTR Value 1n
SYMBOL res 1488 -400 R0
SYMATTR InstName R3
SYMATTR Value {1k*1.1k}
SYMBOL res 1152 -400 R270
WINDOW 0 25 56 VTop 2
WINDOW 3 7 56 VBottom 2
SYMATTR InstName R4
SYMATTR Value 10k
SYMBOL res 1056 -400 R0
WINDOW 0 -46 59 Left 2
WINDOW 3 -22 164 Left 2
SYMATTR InstName R5
SYMATTR Value {Rmic}
SYMBOL res 1120 -400 R0
WINDOW 3 -8 168 Left 2
SYMATTR Value {Rmic}
SYMATTR InstName R6
SYMBOL res 880 -400 R270
WINDOW 0 32 56 VTop 2
WINDOW 3 0 56 VBottom 2
SYMATTR InstName R7
SYMATTR Value {Rs}
SYMBOL cap 992 -432 M90
WINDOW 0 0 32 VBottom 2
WINDOW 3 32 32 VTop 2
SYMATTR InstName C3
SYMATTR Value 100n
SYMBOL source-Vmarker 992 96 M180
SYMATTR InstName U5
SYMATTR Value V={rlp}
SYMBOL res 1520 272 R0
SYMATTR InstName R12
SYMATTR Value {RLs}
SYMBOL ind 1520 144 R0
SYMATTR InstName L2
SYMATTR Value {L}
SYMBOL cap 1632 240 R0
SYMATTR InstName C7
SYMATTR Value {C}
SYMBOL res 1872 192 R0
WINDOW 3 -4 200 Left 2
SYMATTR Value {RLp*100t}
SYMATTR InstName R13
SYMBOL ind 1776 192 R0
WINDOW 39 -44 160 Left 2
SYMATTR SpiceLine Rpar=1000t
SYMATTR InstName L3
SYMATTR Value {L}
SYMBOL cap 1968 208 R0
SYMATTR InstName C8
SYMATTR Value {C}
SYMBOL source-Vmarker 992 144 M180
SYMATTR InstName U7
SYMATTR Value V={fosc}
SYMBOL source-Vmarker 992 48 M180
SYMATTR InstName U8
SYMATTR Value V={rls}
SYMBOL source-V 1056 224 R0
WINDOW 123 28 109 Left 2
WINDOW 39 0 0 Left 2
SYMATTR Value2 AC 1
SYMATTR InstName V3
SYMATTR Value 0
SYMBOL MDB_sym\\BBY51-02w 1280 -384 R180
WINDOW 0 -8 -13 Left 2
WINDOW 3 -8 -45 Left 2
SYMATTR InstName U6
TEXT 20 248 Left 2 !;tran 1
TEXT 280 -120 Left 2 !.param Ve = 5
TEXT -456 48 Left 2 ;‰‰‰‰wsaf‰f‰s‰asf
TEXT 1848 -944 Left 2 !.param Vbe0 = 0.6V\n.param B = 124\n.param A = B/(1+B)\n.param Re = {Ve0*A/Ic0}\n.param Rb = {(Vcc-Vbe0-Ic0/A*Re)/(Ic0/B)}
TEXT 1280 -896 Left 2 !.model BBY51_nxp D(\n+ RS=.4\n+ CJO=6.79E-12\n+ M=0.65\n+ VJ=1.03)
TEXT 944 -864 Left 2 !.tran 2u
TEXT 1184 -896 Right 2 !.options plotwinsize=0
TEXT 1272 -736 Left 2 !.model BBY51 D (\n+ Rs= 0.37 \n+ Cjo = 7.5p \n+ Vj=0.6 \n+ m=0.4)
TEXT 1576 -928 Left 2 !.param En = 1\n.param f0 = 107.2Meg\n.param Vcc = 3V\n.param Ve0 = 1.5V\n.param Ic0 = 1.2mA\n.param Ls = 80nH
TEXT 1224 -1008 Left 3 ;ECO / VCO
TEXT 1584 -728 Left 2 !.param Rmic = 10k\n.param Rs = 3.3k\n.param Umic = .25V
TEXT 1864 -760 Left 2 !.param rpi={B*26m/Ic0}
TEXT 1856 -720 Left 2 !.param Xca = { 1/(2*pi*f0*(47p/2+100p)) }\n.param r0 = 200k
TEXT 1560 -560 Left 2 ;.ic i(L2)=1mA\n.ic V(b2)=-5V
TEXT 1232 440 Left 2 !.param L = 110n\n.param RLs = 1\n.param C = 22p\n.param fosc = { 1/(2*pi*sqrt(L*C)) }\n.param RLp = { (2*pi*fosc*L)**2/RLs }
TEXT 1488 -56 Left 2 ;.ic I(L1)=1m\n.ic I(L3)=1m
TEXT 1232 -56 Left 2 ;.ic V(A)=1\n.ic V(B)=1m
RECTANGLE Normal 1472 -288 1392 -400 2
