Version 4
SHEET 1 880 680
WIRE 160 -144 128 -144
WIRE 192 -144 160 -144
WIRE 272 64 272 48
WIRE 272 80 272 64
WIRE -464 144 -512 144
WIRE -352 144 -384 144
WIRE -336 144 -352 144
WIRE -512 176 -512 144
WIRE -336 208 -336 144
WIRE 272 224 272 160
WIRE 224 288 160 288
WIRE -512 304 -512 256
WIRE -336 320 -336 272
WIRE 160 384 160 352
WIRE 272 384 272 320
FLAG 272 384 0
FLAG 160 384 0
FLAG 272 64 Vcc
FLAG -336 320 0
FLAG -512 304 0
FLAG -352 144 c
FLAG 160 -144 Vcc
SYMBOL njf 224 224 R0
SYMATTR InstName J1
SYMBOL cap 144 288 R0
SYMATTR InstName C1
SYMATTR Value 1p
SYMBOL res 256 64 R0
SYMATTR InstName R1
SYMATTR Value 3.3k
SYMBOL diode -320 272 R180
WINDOW 0 24 64 Left 2
WINDOW 3 24 0 Left 2
SYMATTR InstName D1
SYMATTR Value myVar
SYMBOL source-V -512 160 R0
WINDOW 3 -15 197 Left 2
WINDOW 123 0 0 Left 2
WINDOW 39 0 0 Left 2
SYMATTR InstName V1
SYMATTR Value SINE({Vmic} .25V 1k)
SYMBOL res -368 128 R90
WINDOW 0 0 56 VBottom 2
WINDOW 3 32 56 VTop 2
SYMATTR InstName R2
SYMATTR Value 100k
SYMBOL source-Vmarker 128 -144 R0
SYMATTR Value V=15V
SYMATTR InstName U1
TEXT -520 8 Left 2 !.model MyVar D(Rs= 0.37 Cjo = 7.5p Vj=0.6 m=0.4)
TEXT -540 408 Left 2 !.tran 0 100m 90m
TEXT -360 448 Left 2 ;.step param Vd 0 6 0.1
TEXT 40 488 Left 2 ;.step param C_el 1p 100p 10p
TEXT -272 592 Left 2 !.param Vcc = 3V\n.param Vmic = {Vcc/2}
TEXT -520 -208 Left 2 !.options plotwinsize=0
