Version 4
SHEET 1 880 680
WIRE -1232 -1072 -1312 -1072
WIRE -1200 -1072 -1232 -1072
WIRE -1088 -1072 -1120 -1072
WIRE -976 -1072 -1008 -1072
WIRE -960 -1072 -976 -1072
WIRE -864 -1072 -880 -1072
WIRE -768 -1072 -864 -1072
WIRE -976 -976 -976 -1072
WIRE -960 -976 -976 -976
WIRE -864 -976 -864 -1072
WIRE -864 -976 -896 -976
WIRE -1232 -912 -1232 -1072
WIRE -1088 -912 -1232 -912
WIRE -864 -912 -864 -976
WIRE -864 -912 -1024 -912
WIRE -448 -832 -448 -928
WIRE -224 -832 -224 -928
WIRE -1248 -752 -1312 -752
WIRE -1136 -752 -1168 -752
WIRE -1120 -752 -1136 -752
WIRE -1024 -752 -1040 -752
WIRE -928 -752 -1024 -752
WIRE -448 -672 -448 -736
WIRE -224 -672 -224 -736
WIRE -1136 -656 -1136 -752
WIRE -1120 -656 -1136 -656
WIRE -1024 -656 -1024 -752
WIRE -1024 -656 -1056 -656
WIRE -464 -496 -464 -512
WIRE -1200 -480 -1200 -544
WIRE -464 -480 -464 -496
WIRE -832 -416 -832 -480
WIRE -1328 -352 -1344 -352
WIRE -1232 -352 -1248 -352
WIRE -1200 -352 -1200 -400
WIRE -1200 -352 -1232 -352
WIRE -1104 -352 -1200 -352
WIRE -976 -352 -1024 -352
WIRE -880 -352 -896 -352
WIRE -832 -352 -832 -384
WIRE -832 -352 -880 -352
WIRE -512 -336 -576 -336
WIRE -1200 -320 -1200 -352
WIRE -832 -320 -832 -352
WIRE -576 -240 -576 -272
WIRE -464 -240 -464 -304
WIRE -1200 -208 -1200 -240
WIRE -832 -208 -832 -288
FLAG -448 -672 0
FLAG -592 -784 0
FLAG -464 -240 0
FLAG -576 -240 0
FLAG -464 -496 Vcc
FLAG -880 -352 in2
FLAG -832 -208 0
FLAG -1200 -208 0
FLAG -1200 -544 Vcc
FLAG -1232 -352 m2
FLAG -928 -752 0
FLAG -768 -1056 0
FLAG -1312 -1072 0
FLAG -224 -672 0
FLAG -368 -784 0
FLAG -832 -480 0
SYMBOL SBORKA\\BJT\\bfr92 -512 -832 R0
WINDOW 38 51 34 Left 2
SYMATTR InstName U1
SYMBOL source-Vmarker -448 -928 M180
SYMATTR InstName U2
SYMATTR Value V=20V
SYMBOL source-I -512 -784 R90
WINDOW 0 -27 40 VBottom 2
WINDOW 3 27 40 VTop 2
WINDOW 123 0 0 Left 2
WINDOW 39 0 0 Left 2
SYMATTR InstName Ib1
SYMATTR Value 0
SYMBOL njf -512 -400 R0
SYMATTR InstName J1
SYMBOL cap -592 -336 R0
SYMATTR InstName C1
SYMATTR Value 1n
SYMBOL res -480 -496 R0
SYMATTR InstName R1
SYMATTR Value 3.3k
SYMBOL res -880 -368 R90
WINDOW 0 0 56 VBottom 2
WINDOW 3 32 56 VTop 2
SYMATTR InstName R2
SYMATTR Value 10k
SYMBOL res -1216 -496 R0
SYMATTR InstName R3
SYMATTR Value {Rmic}
SYMBOL res -1216 -336 R0
SYMATTR InstName R4
SYMATTR Value {Rmic}
SYMBOL res -1344 -336 R270
WINDOW 0 32 56 VTop 2
WINDOW 3 0 56 VBottom 2
SYMATTR InstName R5
SYMATTR Value {Rmic/2}
SYMBOL source-V -1008 -352 M270
WINDOW 123 0 0 Left 2
WINDOW 39 0 0 Left 2
WINDOW 0 48 80 VLeft 2
WINDOW 3 -45 143 VLeft 2
SYMATTR InstName V1
SYMATTR Value SINE(0 {Umic} 1k)
SYMBOL res -1152 -768 R90
WINDOW 0 0 56 VBottom 2
WINDOW 3 32 56 VTop 2
SYMATTR InstName R6
SYMATTR Value {Rbb}
SYMBOL res -1024 -768 R90
WINDOW 0 0 56 VBottom 2
WINDOW 3 32 56 VTop 2
SYMATTR InstName R7
SYMATTR Value {rD}
SYMBOL cap -1056 -672 R90
WINDOW 0 0 32 VBottom 2
WINDOW 3 32 32 VTop 2
SYMATTR InstName C2
SYMATTR Value {CD}
SYMBOL res -992 -1088 R90
WINDOW 0 0 56 VBottom 2
WINDOW 3 32 56 VTop 2
SYMATTR InstName R8
SYMATTR Value {Rbb}
SYMBOL res -864 -1088 R90
WINDOW 0 0 56 VBottom 2
WINDOW 3 32 56 VTop 2
SYMATTR InstName R9
SYMATTR Value {rD}
SYMBOL cap -896 -992 R90
WINDOW 0 0 32 VBottom 2
WINDOW 3 32 32 VTop 2
SYMATTR InstName C3
SYMATTR Value {CD}
SYMBOL ind -1104 -1088 R90
WINDOW 0 5 56 VBottom 2
WINDOW 3 32 56 VTop 2
SYMATTR InstName L1
SYMATTR Value {LG}
SYMBOL cap -1024 -928 R90
WINDOW 0 0 32 VBottom 2
WINDOW 3 32 32 VTop 2
SYMATTR InstName C4
SYMATTR Value {CG}
SYMBOL source-Vmarker -224 -928 M180
SYMATTR InstName U3
SYMATTR Value V=20V
SYMBOL bi -368 -784 R270
WINDOW 0 32 40 VTop 2
WINDOW 3 -32 40 VBottom 2
SYMATTR InstName B1
SYMATTR Value I=I(Ib1)
SYMBOL MDB_sym\\BFR92A -288 -832 R0
SYMATTR InstName U4
SYMBOL MDB_sym\\varactor -816 -368 R0
SYMATTR InstName D1
SYMATTR Value BBY51
SYMBOL MDB_sym\\varactor -848 -336 R180
WINDOW 0 -8 -13 Left 2
WINDOW 3 -8 -45 Left 2
SYMATTR InstName D2
SYMATTR Value BBY51
TEXT -1224 -136 Left 2 !.param Rmic = 10k\n.param Umic = .25V
TEXT -1256 -624 Left 2 ;D_NF
TEXT -1248 -888 Left 2 ;D_HF
TEXT -1256 -1200 Left 2 ;Sperrbereich Vf < 0\nrD -> inf  CD~Cj0
TEXT -888 -760 Left 2 !.param rD = 0.1\n.param CD = 0\n.param CG = 0\n.param Rbb = 0.1\n.param LG = 0.1
TEXT -1362 -58 Left 2 !.dc Ib1 10u 100u 1u
TEXT -624 -1224 Left 2 !.model BBY51_nxp D(\n+ RS=.4\n+ CJO=6.79E-12\n+ M=0.65\n+ VJ=1.03)
TEXT -352 -1224 Left 2 !.model BBY51 D (\n+ Rs= 0.37 \n+ Cjo = 7.5p \n+ Vj=0.6 \n+ m=0.4)
RECTANGLE Normal -976 -608 -1264 -816 2
RECTANGLE Normal -808 -864 -1264 -1120 2
RECTANGLE Normal -64 -64 -1360 -1264 2
