Version 4
SHEET 1 948 680
WIRE 416 -480 400 -480
WIRE 512 -480 496 -480
WIRE 400 -448 400 -480
WIRE 400 -352 400 -368
WIRE 512 -352 512 -480
WIRE 272 -256 -160 -256
WIRE 128 -208 112 -208
WIRE 272 -208 272 -256
WIRE 272 -208 208 -208
WIRE 304 -208 272 -208
WIRE 352 -208 304 -208
WIRE 368 -208 352 -208
WIRE 480 -208 448 -208
WIRE 272 -192 272 -208
WIRE 192 -160 176 -160
WIRE 16 -144 -32 -144
WIRE 32 -144 16 -144
WIRE 112 -144 112 -208
WIRE 112 -144 96 -144
WIRE 176 -144 176 -160
WIRE 176 -144 112 -144
WIRE 208 -144 176 -144
WIRE -32 -128 -32 -144
WIRE 176 -112 176 -144
WIRE 16 -96 16 -144
WIRE 112 -96 16 -96
WIRE 352 -96 352 -208
WIRE 480 -96 480 -208
WIRE -160 -48 -160 -256
WIRE -160 -48 -320 -48
WIRE 176 -16 176 -48
WIRE 272 -16 272 -96
WIRE 272 -16 176 -16
WIRE 304 -16 272 -16
WIRE -32 0 -32 -48
WIRE 16 0 -32 0
WIRE 32 0 16 0
WIRE -320 32 -320 -48
WIRE -32 32 -32 0
WIRE 176 32 176 -16
WIRE 272 48 272 -16
WIRE 112 64 112 -96
WIRE 32 80 32 0
WIRE -176 112 -224 112
WIRE -32 112 -32 96
WIRE -32 112 -96 112
WIRE -32 128 -32 112
WIRE -320 208 -320 112
WIRE -224 208 -224 192
WIRE -224 208 -320 208
WIRE -32 208 -32 192
WIRE 32 208 32 144
WIRE 32 208 -32 208
WIRE 112 208 112 144
WIRE 112 208 32 208
WIRE 176 208 176 96
WIRE 176 208 112 208
WIRE 272 208 272 128
WIRE 272 208 176 208
WIRE 352 208 352 -32
WIRE 352 208 272 208
WIRE 480 208 480 -16
WIRE 480 208 352 208
WIRE -320 240 -320 208
WIRE 480 240 480 208
WIRE -80 320 -176 320
WIRE 0 320 -80 320
WIRE -320 336 -320 320
WIRE -176 352 -176 320
WIRE -80 400 -80 320
WIRE -288 448 -320 448
WIRE -176 448 -176 432
WIRE -176 448 -224 448
WIRE -160 448 -176 448
WIRE -144 448 -160 448
WIRE -32 496 -80 496
WIRE 0 496 -32 496
WIRE 96 496 64 496
WIRE -176 512 -176 448
WIRE -80 512 -80 496
WIRE -176 624 -176 592
WIRE -80 624 -80 592
FLAG 304 -16 Ve
FLAG 192 -160 Vb
FLAG 304 -208 Vc
FLAG 480 240 0
FLAG -320 336 0
FLAG 512 -352 0
FLAG 400 -352 0
FLAG 16 0 harmonic
FLAG -176 624 0
FLAG -80 624 0
FLAG -320 448 harmonic
FLAG 0 320 Vc
FLAG -32 496 e2
FLAG -160 448 b2
SYMBOL res 224 -224 R90
WINDOW 0 7 56 VBottom 2
WINDOW 3 25 56 VTop 2
SYMATTR InstName R1
SYMATTR Value 3.3k
SYMBOL res 256 32 R0
SYMATTR InstName R2
SYMATTR Value 1.8k
SYMBOL source-V 480 -112 R0
WINDOW 123 0 0 Left 2
WINDOW 39 0 0 Left 2
SYMATTR InstName V1
SYMATTR Value {vbat}
SYMBOL cap 160 32 R0
SYMATTR InstName C2
SYMATTR Value {cegnd}
SYMBOL cap 160 -112 R0
SYMATTR InstName C1
SYMATTR Value {cbe}
SYMBOL ind -16 -144 M0
WINDOW 39 5 -22 Left 2
SYMATTR SpiceLine Rser=1.5
SYMATTR InstName L1
SYMATTR Value {LSer}
SYMBOL cap 32 -160 M90
WINDOW 3 32 32 VTop 2
WINDOW 0 0 32 VBottom 2
SYMATTR Value 1n
SYMATTR InstName C3
SYMBOL res 464 -192 M270
WINDOW 0 25 56 VTop 2
WINDOW 3 7 56 VBottom 2
SYMATTR InstName R4
SYMATTR Value 10
SYMBOL diode -16 192 R180
WINDOW 0 29 55 Left 2
WINDOW 3 38 13 Left 2
SYMATTR InstName D1
SYMATTR Value myD
SYMBOL res -304 16 M0
SYMATTR InstName R5
SYMATTR Value 3.3k
SYMBOL res -304 224 M0
SYMATTR InstName R6
SYMATTR Value 3.3k
SYMBOL source-V -224 96 M0
WINDOW 123 0 0 Left 2
WINDOW 39 0 0 Left 2
WINDOW 3 28 56 Left 2
SYMATTR Value {vm}
SYMATTR InstName V3
SYMBOL res -192 128 R270
WINDOW 0 25 56 VTop 2
WINDOW 3 7 56 VBottom 2
SYMATTR InstName R7
SYMATTR Value 10k
SYMBOL cap 16 80 R0
SYMATTR InstName C4
SYMATTR Value {cparal}
SYMBOL cap 336 -96 R0
SYMATTR InstName C5
SYMATTR Value 100n
SYMBOL source-V 400 -464 M0
WINDOW 123 0 0 Left 2
WINDOW 39 0 0 Left 2
WINDOW 3 -109 -68 Left 2
SYMATTR Value SINE(0 1 700meg)
SYMATTR InstName V2
SYMBOL res 400 -464 R270
WINDOW 0 25 56 VTop 2
WINDOW 3 7 56 VBottom 2
SYMATTR InstName R3
SYMATTR Value 10
SYMBOL diode -16 32 M0
WINDOW 3 37 52 Left 2
SYMATTR Value myD
SYMATTR InstName D2
SYMBOL res 96 48 R0
SYMATTR InstName R8
SYMATTR Value 10k
SYMBOL cap -288 432 M90
WINDOW 0 0 32 VBottom 2
WINDOW 3 32 32 VTop 2
SYMATTR InstName C6
SYMATTR Value 1n
SYMBOL res -160 496 M0
SYMATTR InstName R9
SYMATTR Value 10k
SYMBOL res -160 336 M0
SYMATTR InstName R10
SYMATTR Value 1k
SYMBOL res -96 496 R0
SYMATTR InstName R11
SYMATTR Value 470
SYMBOL cap 0 480 M90
WINDOW 0 0 32 VBottom 2
WINDOW 3 32 32 VTop 2
SYMATTR InstName C7
SYMATTR Value 1n
SYMBOL SBORKA\\BJT\\bfr92 -144 400 R0
SYMATTR InstName U3
SYMBOL SBORKA\\BJT\\bfr92 208 -192 R0
SYMATTR InstName U4
TEXT -16 -440 Left 2 !.tran 0 25u 4u
TEXT -656 -576 Left 2 !.param vbat 3\n.param vm {vbat/2}\n \n.param CBE 47p\n.param CEGND 100p\n \n.param cparal 47n\n.param LSER 80n\n \n;.step param vm list -0.25 0.25\n;.step param vbat list 2.2 3.0 \n;.step param cparal list 33p 47p 68p \n;.step param cBE list 47p 33p 68p\n;.step param CEGND list 68p 100p 47p\n;.step param ISer list 110n 120n 130n\n \n.model myD D(Rs=0.37 Cjo=7.5p Vj=0.6 M=0.4)
TEXT -16 -472 Left 2 !.options plotwinsize=0
