Version 4
SHEET 1 880 804
WIRE -448 48 -576 48
WIRE -576 80 -576 48
WIRE 256 128 256 96
WIRE -576 192 -576 160
WIRE 384 192 384 96
WIRE 96 240 64 240
WIRE 112 240 96 240
WIRE 144 240 112 240
WIRE 256 240 256 208
WIRE 256 240 208 240
WIRE 320 240 256 240
WIRE 256 272 256 240
WIRE 112 336 112 240
WIRE 384 336 384 288
WIRE 256 368 256 336
WIRE 384 368 384 336
WIRE 384 368 256 368
WIRE 256 384 256 368
WIRE 384 384 384 368
WIRE 112 448 112 416
WIRE 256 496 256 448
WIRE 384 496 384 464
WIRE -48 544 -80 544
WIRE -48 560 -48 544
WIRE -48 656 -48 640
WIRE 48 656 -48 656
WIRE 48 672 48 656
WIRE -48 688 -48 656
WIRE -48 784 -48 768
WIRE 48 784 48 752
FLAG -48 784 0
FLAG 48 784 0
FLAG 96 240 Vx
FLAG -16 240 0
FLAG 384 496 0
FLAG 256 496 0
FLAG 384 96 VCC
FLAG 384 336 ex
FLAG 256 96 VCC
FLAG 112 448 0
FLAG -576 192 0
SYMBOL source-I 48 672 R0
WINDOW 123 0 0 Left 2
WINDOW 39 0 0 Left 2
SYMATTR InstName I1
SYMATTR Value 220µ
SYMBOL res -64 544 R0
SYMATTR InstName R1
SYMATTR Value {Rx1}
SYMBOL res -64 672 R0
SYMATTR InstName R2
SYMATTR Value {Rx2}
SYMBOL source-I 64 240 M270
WINDOW 0 57 64 VLeft 2
WINDOW 3 -52 57 VLeft 2
WINDOW 123 -80 57 VLeft 2
WINDOW 39 0 0 Left 2
SYMATTR InstName ix1
SYMATTR Value SINE(2 1 100meg)
SYMATTR Value2 AC 1
SYMBOL res 368 368 R0
SYMATTR InstName R3
SYMATTR Value {Re}
SYMBOL cap 240 272 R0
SYMATTR InstName C1
SYMATTR Value 33p
SYMBOL cap 240 384 R0
WINDOW 3 -69 156 Left 2
SYMATTR InstName C2
SYMATTR Value {100p+(1k*(1-En))}
SYMBOL res 240 112 R0
SYMATTR InstName Rbq1
SYMATTR Value {Rb}
SYMBOL SBORKA\\BJT\\bfr92 320 192 R0
WINDOW 38 51 34 Left 2
SYMATTR InstName U1
SYMBOL cap 208 224 R90
WINDOW 0 0 32 VBottom 2
WINDOW 3 32 32 VTop 2
SYMATTR InstName C3
SYMATTR Value 1n
SYMBOL res 96 320 R0
SYMATTR InstName R4
SYMATTR Value 1meg
SYMBOL bv -576 64 R0
SYMATTR InstName B1
SYMATTR Value V={{Rx1}*{Rx2}/({Rx1}+{Rx2})}
TEXT 280 80 Left 2 ;11.7k\n3.3k
TEXT -600 -24 Left 2 !.param Rx1=33k\n.param Rx2=53k
