Version 4
SHEET 1 1124 2244
WIRE 128 -672 128 -688
WIRE 240 -624 240 -688
WIRE -144 -576 -208 -576
WIRE 32 -576 -144 -576
WIRE 128 -576 128 -592
WIRE 128 -576 96 -576
WIRE 176 -576 128 -576
WIRE 240 -512 240 -528
WIRE 288 -512 240 -512
WIRE 320 -512 288 -512
WIRE 128 -496 128 -576
WIRE 240 -496 240 -512
WIRE 128 -400 128 -416
WIRE 240 -400 240 -416
WIRE -960 -224 -976 -224
WIRE -848 -224 -880 -224
WIRE -768 -224 -848 -224
WIRE -848 -208 -848 -224
WIRE 128 -208 128 -240
WIRE 240 -144 240 -240
WIRE -848 -128 -848 -144
WIRE -672 -112 -672 -144
WIRE -208 -96 -208 -576
WIRE -208 -96 -336 -96
WIRE -160 -96 -208 -96
WIRE -32 -96 -80 -96
WIRE 0 -96 -32 -96
WIRE 96 -96 64 -96
WIRE 128 -96 128 -128
WIRE 128 -96 96 -96
WIRE 176 -96 128 -96
WIRE -336 -64 -336 -96
WIRE 128 -64 128 -96
WIRE -208 -16 -208 -96
WIRE -32 0 -32 -96
WIRE 240 0 240 -48
WIRE -800 16 -816 16
WIRE -704 16 -720 16
WIRE -672 16 -672 -32
WIRE -672 16 -704 16
WIRE -592 16 -672 16
WIRE -480 16 -512 16
WIRE -384 16 -400 16
WIRE -336 16 -336 -32
WIRE -336 16 -384 16
WIRE 128 32 128 0
WIRE 240 32 240 0
WIRE 240 32 128 32
WIRE -672 48 -672 16
WIRE 128 48 128 32
WIRE 240 48 240 32
WIRE -816 64 -816 16
WIRE -336 64 -336 16
WIRE -816 160 -816 144
WIRE -672 160 -672 128
WIRE -336 160 -336 96
WIRE -208 160 -208 48
WIRE -32 160 -32 80
WIRE 128 160 128 112
WIRE 240 160 240 128
WIRE 96 336 80 336
WIRE 112 336 96 336
WIRE 96 384 80 384
WIRE 112 384 96 384
WIRE 112 432 80 432
FLAG 240 160 0
FLAG 128 160 0
FLAG -384 16 in
FLAG 240 -240 VCC
FLAG 240 0 e
FLAG 96 336 Rb
FLAG 96 384 Re
FLAG 96 -96 b
FLAG -208 160 0
FLAG -32 160 0
FLAG -336 160 0
FLAG -144 -576 noHarmonic
FLAG -672 160 0
FLAG -672 -144 Vcc
FLAG 240 -400 0
FLAG 128 -400 0
FLAG 128 -688 VCC
FLAG 288 -512 e2
FLAG -816 160 0
FLAG -704 16 m1
FLAG -816 16 Vmic
FLAG -848 -128 0
FLAG -848 -224 VCC
FLAG 128 -240 VCC
FLAG 240 -688 VCC
SYMBOL res 224 32 R0
SYMATTR InstName R1
SYMATTR Value 1.8k
SYMBOL cap 112 -64 R0
SYMATTR InstName C1
SYMATTR Value 47p
SYMBOL cap 112 48 R0
WINDOW 3 -36 53 Left 2
SYMATTR Value 47p
SYMATTR InstName C2
SYMBOL source-Vmarker -976 -224 R0
SYMATTR InstName U1
SYMATTR Value V={Vcc}
SYMBOL res 112 -224 R0
SYMATTR InstName Rbq1
SYMATTR Value 3.3k
SYMBOL ind -176 -80 R270
WINDOW 0 32 56 VTop 2
WINDOW 3 5 56 VBottom 2
WINDOW 39 58 54 VTop 2
SYMATTR InstName L1
SYMATTR Value {Ls}
SYMATTR SpiceLine Rser=1.5
SYMBOL SBORKA\\BJT\\bfr92 176 -144 R0
WINDOW 38 51 34 Left 2
SYMATTR InstName U2
SYMBOL source-Vmarker 80 336 M180
SYMATTR InstName U6
SYMATTR Value V={Rb}
SYMBOL source-Vmarker 80 384 M180
SYMATTR InstName U7
SYMATTR Value V={Re}
SYMBOL source-Vmarker 80 432 M180
SYMATTR InstName U8
SYMATTR Value V={Vcc}
SYMBOL cap -224 48 M180
WINDOW 0 24 56 Left 2
WINDOW 3 24 8 Left 2
SYMATTR InstName C3
SYMATTR Value 47n
SYMBOL cap 64 -112 R90
WINDOW 0 0 32 VBottom 2
WINDOW 3 32 32 VTop 2
SYMATTR InstName C4
SYMATTR Value 1n
SYMBOL res -48 -16 R0
SYMATTR InstName R4
SYMATTR Value 10k
SYMBOL res -384 0 R90
WINDOW 0 0 56 VBottom 2
WINDOW 3 32 56 VTop 2
SYMATTR InstName R6
SYMATTR Value 10k
SYMBOL res -688 -128 R0
SYMATTR InstName R8
SYMATTR Value {Rmic}
SYMBOL res -688 32 R0
SYMATTR InstName R9
SYMATTR Value {Rmic}
SYMBOL source-V -496 16 M270
WINDOW 123 0 0 Left 2
WINDOW 39 0 0 Left 2
WINDOW 3 38 55 Left 2
SYMATTR Value {Umic+0*Vcc/2}
SYMATTR InstName V4
SYMBOL res 224 -512 R0
SYMATTR InstName R7
SYMATTR Value 500
SYMBOL res 112 -688 R0
SYMATTR InstName R10
SYMATTR Value 1k
SYMBOL cap 96 -592 R90
WINDOW 0 0 32 VBottom 2
WINDOW 3 32 32 VTop 2
SYMATTR InstName C6
SYMATTR Value 1n
SYMBOL res 112 -512 R0
SYMATTR InstName R12
SYMATTR Value 10k
SYMBOL res -816 32 R270
WINDOW 0 32 56 VTop 2
WINDOW 3 0 56 VBottom 2
SYMATTR InstName R13
SYMATTR Value {Rmic}
SYMBOL MDB_sym\\varactor -320 48 M180
WINDOW 0 -8 -13 Left 2
WINDOW 3 -8 -45 Left 2
SYMATTR InstName D1
SYMATTR Value BBY51
SYMBOL MDB_sym\\varactor -320 -16 R0
SYMATTR InstName D2
SYMATTR Value BBY51
SYMBOL res -864 -208 M270
WINDOW 0 32 56 VTop 2
WINDOW 3 0 56 VBottom 2
SYMATTR InstName R3
SYMATTR Value 1
SYMBOL cap -864 -208 R0
SYMATTR InstName C10
SYMATTR Value 1µ
SYMBOL SBORKA\\BJT\\bfr92 176 -624 R0
WINDOW 38 51 34 Left 2
SYMATTR InstName U3
TEXT -1040 232 Left 2 !.param Vbe0 = 0.6V\n.param B = 124\n.param A = B/(1+B)\n.param Re = {Ve0*A/Ic0}\n;.param Rb = {(Vcc-Vbe0-Ic0/A*Re)/(Ic0/B)}\n.param Rb = 11.7k\n;.param Rb = 10.7k\n;.param Re = 750\n;.param Cprob = 68p\n .param Cprob = 33p\n.param Rmic = 3.3k
TEXT -168 -208 Left 2 ;.ic V(b) = 3.8V
TEXT -800 -592 Left 2 !.model BBY51_nxp D(\n+ RS=.4\n+ CJO=6.79E-12\n+ M=0.65\n+ VJ=1.03)
TEXT -1120 -24 Left 2 !.tran 0 12.5u 2.5u
TEXT -888 -64 Right 2 !.options plotwinsize=0
TEXT -528 -592 Left 2 !.model BBY51 D (\n+ Rs= 0.37 \n+ Cjo = 7.5p \n+ Vj=0.6 \n+ m=0.4)
TEXT 64 0 Left 2 ;33p\n47p
TEXT 320 80 Left 2 ;990ohm\n1.8k
TEXT 56 -200 Left 2 ;11.7k\n3.3k
TEXT -400 328 Left 2 !.param En = 1\n.param fa = 107.2Meg\n.param Vcc = 3V\n.param Ve0 = 1.5V\n.param Ic0 = 1.5mA\n.param Ls = 80nH\n.param umic = 0
TEXT 112 216 Left 2 ;{100p+(1k*(1-En))}
TEXT -920 192 Left 2 !.step param umic list -.25 .25
TEXT -584 -352 Left 6 ;kaputt
