Version 4
SHEET 1 2924 3108
WIRE 688 448 672 448
WIRE 800 448 768 448
WIRE 800 464 800 448
WIRE 800 544 800 528
WIRE 1184 656 1184 624
WIRE 1312 720 1312 624
WIRE 400 752 400 720
WIRE 544 752 544 720
WIRE 816 768 736 768
WIRE 864 768 816 768
WIRE 912 768 864 768
WIRE 1040 768 992 768
WIRE 1072 768 1040 768
WIRE 1152 768 1136 768
WIRE 1184 768 1184 736
WIRE 1184 768 1152 768
WIRE 1248 768 1184 768
WIRE 736 800 736 768
WIRE 1184 800 1184 768
WIRE 864 848 864 768
WIRE 1040 864 1040 768
WIRE 1312 864 1312 816
WIRE 224 880 192 880
WIRE 320 880 304 880
WIRE 400 880 400 832
WIRE 400 880 320 880
WIRE 416 880 400 880
WIRE 544 880 544 832
WIRE 544 880 480 880
WIRE 592 880 544 880
WIRE 688 880 672 880
WIRE 736 880 736 832
WIRE 736 880 688 880
WIRE 1184 896 1184 864
WIRE 1312 896 1312 864
WIRE 1312 896 1184 896
WIRE 192 912 192 880
WIRE 544 912 544 880
WIRE 1184 912 1184 896
WIRE 1312 912 1312 896
WIRE 736 928 736 880
WIRE 192 1008 192 992
WIRE 544 1024 544 992
WIRE 736 1024 736 960
WIRE 864 1024 864 912
WIRE 1040 1024 1040 944
WIRE 1184 1024 1184 976
WIRE 1312 1024 1312 992
WIRE 480 1184 368 1184
WIRE 544 1184 480 1184
WIRE 1168 1200 1152 1200
WIRE 1184 1200 1168 1200
WIRE 368 1216 368 1184
WIRE 1168 1248 1152 1248
WIRE 1184 1248 1168 1248
WIRE 544 1296 544 1184
WIRE 1184 1296 1152 1296
WIRE 224 1344 208 1344
WIRE 272 1344 224 1344
WIRE 368 1344 368 1296
WIRE 368 1344 336 1344
WIRE 432 1344 368 1344
WIRE 480 1344 432 1344
WIRE 544 1408 544 1392
WIRE 368 1424 368 1344
WIRE 544 1424 544 1408
WIRE 368 1536 368 1504
WIRE 544 1536 544 1504
WIRE 464 1728 352 1728
WIRE 528 1728 464 1728
WIRE 528 1776 528 1728
WIRE 352 1856 352 1728
WIRE 528 1904 528 1856
WIRE 528 1936 528 1904
WIRE 208 1984 192 1984
WIRE 256 1984 208 1984
WIRE 352 1984 352 1936
WIRE 352 1984 320 1984
WIRE 464 1984 352 1984
WIRE 352 2064 352 1984
WIRE 352 2176 352 2144
WIRE 528 2176 528 2032
FLAG 1312 1024 0
FLAG 1184 1024 0
FLAG 688 880 in
FLAG 1312 624 VCC
FLAG 1312 864 e
FLAG 1168 1200 Rb
FLAG 1168 1248 Re
FLAG 1152 768 b
FLAG 864 1024 0
FLAG 1040 1024 0
FLAG 736 1024 0
FLAG 816 768 noHarmonic
FLAG 400 720 Vcc
FLAG 544 1536 0
FLAG 368 1536 0
FLAG 480 1184 VCC
FLAG 544 1408 e2
FLAG 192 1008 0
FLAG 320 880 m1
FLAG 192 880 Vmic
FLAG 800 544 0
FLAG 800 448 VCC
FLAG 1184 624 VCC
FLAG 528 2176 0
FLAG 352 2176 0
FLAG 464 1728 VCC
FLAG 432 1344 0
FLAG 528 1904 c2
FLAG 208 1984 0
FLAG 224 1344 noHarmonic
FLAG 544 720 Vcc
FLAG 544 1024 0
SYMBOL res 1296 896 R0
SYMATTR InstName R1
SYMATTR Value 1.8k
SYMBOL cap 1168 800 R0
SYMATTR InstName C1
SYMATTR Value 47p
SYMBOL cap 1168 912 R0
WINDOW 3 -69 156 Left 2
SYMATTR Value {100p+(1k*(1-En))}
SYMATTR InstName C2
SYMBOL source-Vmarker 672 448 R0
SYMATTR InstName U1
SYMATTR Value V={Vcc}
SYMBOL res 1168 640 R0
SYMATTR InstName Rbq1
SYMATTR Value 3.3k
SYMBOL ind 896 784 R270
WINDOW 0 32 56 VTop 2
WINDOW 3 5 56 VBottom 2
WINDOW 39 58 54 VTop 2
SYMATTR InstName L1
SYMATTR Value {Ls}
SYMATTR SpiceLine Rser=1.5
SYMBOL source-Vmarker 1152 1200 M180
SYMATTR InstName U5
SYMATTR Value V={Rb}
SYMBOL source-Vmarker 1152 1248 M180
SYMATTR InstName U6
SYMATTR Value V={Re}
SYMBOL source-Vmarker 1152 1296 M180
SYMATTR InstName U7
SYMATTR Value V={Vcc}
SYMBOL cap 848 912 M180
WINDOW 0 24 56 Left 2
WINDOW 3 24 8 Left 2
SYMATTR InstName C3
SYMATTR Value 33p
SYMBOL cap 1136 752 R90
WINDOW 0 0 32 VBottom 2
WINDOW 3 32 32 VTop 2
SYMATTR InstName C4
SYMATTR Value 1n
SYMBOL res 1024 848 R0
SYMATTR InstName R2
SYMATTR Value 1.1k
SYMBOL res 688 864 R90
WINDOW 0 0 56 VBottom 2
WINDOW 3 32 56 VTop 2
SYMATTR InstName R3
SYMATTR Value 10k
SYMBOL res 384 736 R0
SYMATTR InstName R4
SYMATTR Value {Rmic}
SYMBOL source-V 192 896 M0
WINDOW 123 0 0 Left 2
WINDOW 39 0 0 Left 2
WINDOW 3 -75 152 Left 2
SYMATTR Value {Vcc/2+Umic}
SYMATTR InstName V1
SYMBOL res 528 1408 R0
SYMATTR InstName R7
SYMATTR Value 500
SYMBOL res 352 1200 R0
SYMATTR InstName R8
SYMATTR Value 1k
SYMBOL cap 336 1328 R90
WINDOW 0 0 32 VBottom 2
WINDOW 3 32 32 VTop 2
SYMATTR InstName C6
SYMATTR Value 1n
SYMBOL res 352 1408 R0
SYMATTR InstName R9
SYMATTR Value 10k
SYMBOL res 208 896 R270
WINDOW 0 32 56 VTop 2
WINDOW 3 0 56 VBottom 2
SYMATTR InstName R10
SYMATTR Value {Rmic}
SYMBOL MDB_sym\\varactor 752 912 M180
WINDOW 0 -8 -13 Left 2
WINDOW 3 -8 -45 Left 2
SYMATTR InstName D1
SYMATTR Value BBY51
SYMBOL MDB_sym\\varactor 752 848 R0
SYMATTR InstName D2
SYMATTR Value BBY51
SYMBOL res 784 464 M270
WINDOW 0 32 56 VTop 2
WINDOW 3 0 56 VBottom 2
SYMATTR InstName R19
SYMATTR Value 1
SYMBOL cap 784 464 R0
SYMATTR InstName C10
SYMATTR Value 1µ
SYMBOL BFR92A 1248 720 R0
SYMATTR InstName U2
SYMBOL BFR92A 480 1296 R0
SYMATTR InstName U3
SYMBOL res 512 1760 R0
SYMATTR InstName R6
SYMATTR Value 500
SYMBOL res 336 1840 R0
SYMATTR InstName R11
SYMATTR Value 10k
SYMBOL cap 320 1968 R90
WINDOW 0 0 32 VBottom 2
WINDOW 3 32 32 VTop 2
SYMATTR InstName C5
SYMATTR Value 1n
SYMBOL res 336 2048 R0
SYMATTR InstName R12
SYMATTR Value 100k
SYMBOL BFR92A 464 1936 R0
SYMATTR InstName U4
SYMBOL cap 480 864 R90
WINDOW 0 0 32 VBottom 2
WINDOW 3 32 32 VTop 2
SYMATTR InstName C7
SYMATTR Value 1n
SYMBOL res 528 736 R0
SYMATTR InstName R5
SYMATTR Value 10k
TEXT 904 256 Left 2 !.param Vbe0 = 0.6V\n.param B = 124\n.param A = B/(1+B)\n.param Re = {Ve0*A/Ic0}\n;.param Rb = {(Vcc-Vbe0-Ic0/A*Re)/(Ic0/B)}\n.param Rb = 11.7k\n;.param Rb = 10.7k\n;.param Re = 750\n;.param Cprob = 68p\n .param Cprob = 33p
TEXT 896 576 Left 2 !.ic V(b) = 1V
TEXT 272 272 Left 2 !.model BBY51_nxp D(\n+ RS=.4\n+ CJO=6.79E-12\n+ M=0.65\n+ VJ=1.03)
TEXT 168 648 Left 2 !.tran 0 50u 15u
TEXT 416 608 Right 2 !.options plotwinsize=0
TEXT 544 272 Left 2 !.model BBY51 D (\n+ Rs= 0.37 \n+ Cjo = 7.5p \n+ Vj=0.6 \n+ m=0.4)
TEXT 1128 832 Left 2 ;33p\n47p
TEXT 1392 944 Left 2 ;990ohm\n1.8k
TEXT 1120 656 Left 2 ;11.7k\n3.3k
TEXT 672 1192 Left 2 !.param En = 1\n.param fa = 107.2Meg\n.param Vcc = 3V\n.param Ve0 = 1.5V\n.param Ic0 = 1.5mA\n.param Ls = 80nH
TEXT 216 160 Left 3 ;ECO / VCO
TEXT 336 1592 Left 2 !.param Rmic = 10k\n.param Umic = .25V
TEXT 1632 232 Left 2 ;* BFR92AW SPICE MODEL\n* PHILIPS SEMICONDUCTORS\n* Date : September 1995\n*\n* PACKAGE : SOT323 DIE MODEL : BFR90A\n* 1: COLLECTOR; 2: BASE; 3: EMITTER\n.SUBCKT BFR92AW 1 2 3\nQ1 6 5 7 7 BFR90A\n* SOT323 parasitic model\n               Lb  4 5 .6n \n               Le  7 8 .6n\n               L1  2 4 .34n\n               L2  1 6 .1n\n               L3  3 8 .34n\n              Ccb  4 6 100f\n              Cbe  4 8 2f\n*\n* PHILIPS SEMICONDUCTORS\n* Filename:   BFR90A.PRM \n*\n.MODEL  BFR90A   NPN\n+              IS = 4.11877E-016\n+              BF = 1.02639E+002\n+              NF = 9.97275E-001\n+             VAF = 6.26719E+001\n+             IKF = 3.20054E+000\n+             ISE = 4.01062E-015\n+              NE = 1.57708E+000\n+              BR = 1.81086E+001\n+              NR = 9.96202E-001\n+             VAR = 3.36915E+000\n+             IKR = 1.28155E+000\n+             ISC = 2.79905E-016\n+              NC = 1.07543E+000\n+              RB = 1.00000E+001\n+             IRB = 1.00000E-006\n+             RBM = 1.00000E+001\n+              RE = 1.16450E+000\n+              RC = 2.32000E+000\n+              EG = 1.11000E+000\n+             XTI = 3.00000E+000\n+             CJE = 8.90512E-013\n+             VJE = 6.00000E-001\n+             MJE = 2.58570E-001\n+              TF = 1.54973E-011\n+             XTF = 3.91402E+001\n+             VTF = 2.15279E+000\n+             ITF = 2.13776E-001\n+             CJC = 5.46563E-013\n+             VJC = 3.80824E-001\n+             MJC = 2.02935E-001\n.ENDS
TEXT 2176 224 Left 2 ;* BFR92A SPICE MODEL\n* PHILIPS SEMICONDUCTORS\n* Date : September 1995\n*\n* PACKAGE : SOT23 DIE MODEL : BFR90A\n* 1: COLLECTOR; 2: BASE; 3: EMITTER;\n.SUBCKT BFR92A/PLP 1 2 3\nQ1 6 5 7 7 BFR90A\n* SOT23 parasitic model\n               Lb  4 5 .4n\n               Le  7 8 .83n\n               L1  2 4 .35n\n               L2  1 6 .17n\n               L3  3 8 .35n\n              Ccb  4 6 71f\n              Cbe  4 8 71f\n*\n* PHILIPS SEMICONDUCTORS\n* Filename:   BFR90A.PRM\n*\n.MODEL  BFR90A   NPN(\n+              IS = 4.11877E-016\n+              BF = 1.02639E+002\n+              NF = 9.97275E-001\n+             VAF = 6.26719E+001\n+             IKF = 3.20054E+000\n+             ISE = 4.01062E-015\n+              NE = 1.57708E+000\n+              BR = 1.81086E+001\n+              NR = 9.96202E-001\n+             VAR = 3.36915E+000\n+             IKR = 1.28155E+000\n+             ISC = 2.79905E-016\n+              NC = 1.07543E+000\n+              RB = 1.00000E+001\n+             IRB = 1.00000E-006\n+             RBM = 1.00000E+001\n+              RE = 1.16450E+000\n+              RC = 2.32000E+000\n+              EG = 1.11000E+000\n+             XTI = 3.00000E+000\n+             CJE = 8.90512E-013\n+             VJE = 6.00000E-001\n+             MJE = 2.58570E-001\n+              TF = 1.54973E-011\n+             XTF = 3.91402E+001\n+             VTF = 2.15279E+000\n+             ITF = 2.13776E-001\n+             CJC = 5.46563E-013\n+             VJC = 3.80824E-001\n+             MJC = 2.02935E-001)\n.ENDS\n*
TEXT 688 1080 Left 2 !.step param Umic list -.25 .25
RECTANGLE Normal 928 944 832 832 2
RECTANGLE Normal 352 1072 112 832 2
