Version 4
SHEET 1 1860 2244
WIRE -384 -416 -400 -416
WIRE -272 -416 -304 -416
WIRE 688 -416 608 -416
WIRE 720 -416 688 -416
WIRE 832 -416 800 -416
WIRE 944 -416 912 -416
WIRE 960 -416 944 -416
WIRE 1056 -416 1040 -416
WIRE 1152 -416 1056 -416
WIRE -272 -400 -272 -416
WIRE -272 -320 -272 -336
WIRE 944 -320 944 -416
WIRE 960 -320 944 -320
WIRE 1056 -320 1056 -416
WIRE 1056 -320 1024 -320
WIRE 688 -256 688 -416
WIRE 832 -256 688 -256
WIRE 1056 -256 1056 -320
WIRE 1056 -256 896 -256
WIRE 112 -208 112 -240
WIRE 1472 -176 1472 -272
WIRE 1696 -176 1696 -272
WIRE 240 -144 240 -240
WIRE -528 -112 -528 -144
WIRE -256 -96 -336 -96
WIRE -208 -96 -256 -96
WIRE -160 -96 -208 -96
WIRE -32 -96 -80 -96
WIRE 0 -96 -32 -96
WIRE 80 -96 64 -96
WIRE 112 -96 112 -128
WIRE 112 -96 80 -96
WIRE 176 -96 112 -96
WIRE 672 -96 608 -96
WIRE 784 -96 752 -96
WIRE 800 -96 784 -96
WIRE 896 -96 880 -96
WIRE 992 -96 896 -96
WIRE -336 -64 -336 -96
WIRE 112 -64 112 -96
WIRE -208 -16 -208 -96
WIRE 1472 -16 1472 -80
WIRE 1696 -16 1696 -80
WIRE -32 0 -32 -96
WIRE 240 0 240 -48
WIRE 784 0 784 -96
WIRE 800 0 784 0
WIRE 896 0 896 -96
WIRE 896 0 864 0
WIRE -656 16 -672 16
WIRE -560 16 -576 16
WIRE -528 16 -528 -32
WIRE -528 16 -560 16
WIRE -480 16 -528 16
WIRE -384 16 -400 16
WIRE -336 16 -336 -32
WIRE -336 16 -384 16
WIRE 112 32 112 0
WIRE 240 32 240 0
WIRE 240 32 112 32
WIRE -528 48 -528 16
WIRE 112 48 112 32
WIRE 240 48 240 32
WIRE -672 64 -672 16
WIRE -336 64 -336 16
WIRE -672 160 -672 144
WIRE -528 160 -528 128
WIRE -336 160 -336 96
WIRE -208 160 -208 48
WIRE -32 160 -32 80
WIRE 112 160 112 112
WIRE 240 160 240 128
WIRE 1456 160 1456 144
WIRE 720 176 720 112
WIRE 1456 176 1456 160
WIRE 1088 240 1088 176
WIRE 592 304 576 304
WIRE 688 304 672 304
WIRE 720 304 720 256
WIRE 720 304 688 304
WIRE 816 304 720 304
WIRE 944 304 896 304
WIRE 1040 304 1024 304
WIRE 1088 304 1088 272
WIRE 1088 304 1040 304
WIRE -592 320 -704 320
WIRE -528 320 -592 320
WIRE 1408 320 1344 320
WIRE 96 336 80 336
WIRE 112 336 96 336
WIRE 720 336 720 304
WIRE 1088 336 1088 304
WIRE -704 352 -704 320
WIRE 96 384 80 384
WIRE 112 384 96 384
WIRE 1344 416 1344 384
WIRE 1456 416 1456 352
WIRE -528 432 -528 320
WIRE 112 432 80 432
WIRE 720 448 720 416
WIRE 1088 448 1088 368
WIRE -848 480 -864 480
WIRE -800 480 -848 480
WIRE -704 480 -704 432
WIRE -704 480 -736 480
WIRE -592 480 -704 480
WIRE -528 544 -528 528
WIRE -704 560 -704 480
WIRE -528 560 -528 544
WIRE -704 672 -704 640
WIRE -528 672 -528 640
FLAG 240 160 0
FLAG 112 160 0
FLAG -384 16 in
FLAG 240 -240 VCC
FLAG 240 0 e
FLAG 1472 -16 0
FLAG 1328 -128 0
FLAG 96 336 Rb
FLAG 96 384 Re
FLAG 80 -96 b
FLAG -208 160 0
FLAG -32 160 0
FLAG -336 160 0
FLAG -256 -96 noHarmonic
FLAG -528 160 0
FLAG -528 -144 Vcc
FLAG 1456 416 0
FLAG 1344 416 0
FLAG 1456 160 Vcc
FLAG -528 672 0
FLAG -704 672 0
FLAG -592 320 VCC
FLAG -848 480 noHarmonic
FLAG -528 544 e2
FLAG -672 160 0
FLAG -560 16 m1
FLAG 1040 304 in2
FLAG 1088 448 0
FLAG 720 448 0
FLAG 720 112 Vcc
FLAG 688 304 m2
FLAG -672 16 Vmic
FLAG 992 -96 0
FLAG 1152 -400 0
FLAG 608 -416 0
FLAG 1696 -16 0
FLAG 1552 -128 0
FLAG 1088 176 0
FLAG -272 -320 0
FLAG -272 -416 VCC
FLAG 112 -240 VCC
SYMBOL res 224 32 R0
SYMATTR InstName R1
SYMATTR Value 1.8k
SYMBOL cap 96 -64 R0
SYMATTR InstName C1
SYMATTR Value 47p
SYMBOL cap 96 48 R0
WINDOW 3 -69 156 Left 2
SYMATTR Value {100p+(1k*(1-En))}
SYMATTR InstName C2
SYMBOL source-Vmarker -400 -416 R0
SYMATTR InstName U1
SYMATTR Value V={Vcc}
SYMBOL res 96 -224 R0
SYMATTR InstName Rbq1
SYMATTR Value 3.3k
SYMBOL ind -176 -80 R270
WINDOW 0 32 56 VTop 2
WINDOW 3 5 56 VBottom 2
WINDOW 39 58 54 VTop 2
SYMATTR InstName L1
SYMATTR Value {Ls}
SYMATTR SpiceLine Rser=1.5
SYMBOL SBORKA\\BJT\\bfr92 176 -144 R0
WINDOW 38 51 34 Left 2
SYMATTR InstName U2
SYMBOL SBORKA\\BJT\\bfr92 1408 -176 R0
WINDOW 38 51 34 Left 2
SYMATTR InstName U3
SYMBOL source-Vmarker 1472 -272 M180
SYMATTR InstName U5
SYMATTR Value V=20V
SYMBOL source-I 1408 -128 R90
WINDOW 0 -27 40 VBottom 2
WINDOW 3 27 40 VTop 2
WINDOW 123 0 0 Left 2
WINDOW 39 0 0 Left 2
SYMATTR InstName Ib
SYMATTR Value 0
SYMBOL source-Vmarker 80 336 M180
SYMATTR InstName U6
SYMATTR Value V={Rb}
SYMBOL source-Vmarker 80 384 M180
SYMATTR InstName U7
SYMATTR Value V={Re}
SYMBOL source-Vmarker 80 432 M180
SYMATTR InstName U8
SYMATTR Value V={Vcc}
SYMBOL cap -224 48 M180
WINDOW 0 24 56 Left 2
WINDOW 3 24 8 Left 2
SYMATTR InstName C3
SYMATTR Value 33p
SYMBOL cap 64 -112 R90
WINDOW 0 0 32 VBottom 2
WINDOW 3 32 32 VTop 2
SYMATTR InstName C4
SYMATTR Value 1n
SYMBOL res -48 -16 R0
SYMATTR InstName R4
SYMATTR Value 10k
SYMBOL res -384 0 R90
WINDOW 0 0 56 VBottom 2
WINDOW 3 32 56 VTop 2
SYMATTR InstName R6
SYMATTR Value 10k
SYMBOL res -544 -128 R0
SYMATTR InstName R8
SYMATTR Value {Rmic}
SYMBOL res -544 32 R0
SYMATTR InstName R9
SYMATTR Value {Rmic}
SYMBOL njf 1408 256 R0
SYMATTR InstName J1
SYMBOL cap 1328 320 R0
SYMATTR InstName C5
SYMATTR Value 1n
SYMBOL res 1440 160 R0
SYMATTR InstName R11
SYMATTR Value 3.3k
SYMBOL source-V -672 48 M0
WINDOW 123 0 0 Left 2
WINDOW 39 0 0 Left 2
WINDOW 3 -190 176 Left 2
SYMATTR Value SINE({Vcc/2} {3*Umic*0} 1k)
SYMATTR InstName V4
SYMBOL res -544 544 R0
SYMATTR InstName R7
SYMATTR Value 500
SYMBOL SBORKA\\BJT\\bfr92 -592 432 R0
WINDOW 38 51 34 Left 2
SYMATTR InstName U4
SYMBOL res -720 336 R0
SYMATTR InstName R10
SYMATTR Value 1k
SYMBOL cap -736 464 R90
WINDOW 0 0 32 VBottom 2
WINDOW 3 32 32 VTop 2
SYMATTR InstName C6
SYMATTR Value 1n
SYMBOL res -720 544 R0
SYMATTR InstName R12
SYMATTR Value 10k
SYMBOL res -672 32 R270
WINDOW 0 32 56 VTop 2
WINDOW 3 0 56 VBottom 2
SYMATTR InstName R13
SYMATTR Value {Rmic}
SYMBOL res 1040 288 R90
WINDOW 0 0 56 VBottom 2
WINDOW 3 32 56 VTop 2
SYMATTR InstName R17
SYMATTR Value 10k
SYMBOL res 704 160 R0
SYMATTR InstName R18
SYMATTR Value {Rmic}
SYMBOL res 704 320 R0
SYMATTR InstName R19
SYMATTR Value {Rmic}
SYMBOL res 576 320 R270
WINDOW 0 32 56 VTop 2
WINDOW 3 0 56 VBottom 2
SYMATTR InstName R20
SYMATTR Value {Rmic/2}
SYMBOL source-V 912 304 M270
WINDOW 123 0 0 Left 2
WINDOW 39 0 0 Left 2
WINDOW 0 48 80 VLeft 2
WINDOW 3 -45 143 VLeft 2
SYMATTR InstName V1
SYMATTR Value SINE(0 {Umic} 1k)
SYMBOL res 768 -112 R90
WINDOW 0 0 56 VBottom 2
WINDOW 3 32 56 VTop 2
SYMATTR InstName R14
SYMATTR Value {Rbb}
SYMBOL res 896 -112 R90
WINDOW 0 0 56 VBottom 2
WINDOW 3 32 56 VTop 2
SYMATTR InstName R15
SYMATTR Value {rD}
SYMBOL cap 864 -16 R90
WINDOW 0 0 32 VBottom 2
WINDOW 3 32 32 VTop 2
SYMATTR InstName C7
SYMATTR Value {CD}
SYMBOL res 928 -432 R90
WINDOW 0 0 56 VBottom 2
WINDOW 3 32 56 VTop 2
SYMATTR InstName R16
SYMATTR Value {Rbb}
SYMBOL res 1056 -432 R90
WINDOW 0 0 56 VBottom 2
WINDOW 3 32 56 VTop 2
SYMATTR InstName R21
SYMATTR Value {rD}
SYMBOL cap 1024 -336 R90
WINDOW 0 0 32 VBottom 2
WINDOW 3 32 32 VTop 2
SYMATTR InstName C8
SYMATTR Value {CD}
SYMBOL ind 816 -432 R90
WINDOW 0 5 56 VBottom 2
WINDOW 3 32 56 VTop 2
SYMATTR InstName L2
SYMATTR Value {LG}
SYMBOL cap 896 -272 R90
WINDOW 0 0 32 VBottom 2
WINDOW 3 32 32 VTop 2
SYMATTR InstName C9
SYMATTR Value {CG}
SYMBOL source-Vmarker 1696 -272 M180
SYMATTR InstName U11
SYMATTR Value V=20V
SYMBOL bi 1552 -128 R270
WINDOW 0 32 40 VTop 2
WINDOW 3 -32 40 VBottom 2
SYMATTR InstName B1
SYMATTR Value I=I(Ib)
SYMBOL MDB_sym\\BFR92A 1632 -176 R0
SYMATTR InstName U9
SYMBOL MDB_sym\\varactor -320 48 M180
WINDOW 0 -8 -13 Left 2
WINDOW 3 -8 -45 Left 2
SYMATTR InstName D1
SYMATTR Value BBY51
SYMBOL MDB_sym\\varactor -320 -16 R0
SYMATTR InstName D2
SYMATTR Value BBY51
SYMBOL MDB_sym\\varactor 1104 288 R0
SYMATTR InstName D3
SYMATTR Value BBY51
SYMBOL MDB_sym\\varactor 1072 320 R180
WINDOW 0 -8 -13 Left 2
WINDOW 3 -8 -45 Left 2
SYMATTR InstName D4
SYMATTR Value BBY51
SYMBOL res -288 -400 M270
WINDOW 0 32 56 VTop 2
WINDOW 3 0 56 VBottom 2
SYMATTR InstName R3
SYMATTR Value 1
SYMBOL cap -288 -400 R0
SYMATTR InstName C10
SYMATTR Value 1µ
TEXT -168 -608 Left 2 !.param Vbe0 = 0.6V\n.param B = 124\n.param A = B/(1+B)\n.param Re = {Ve0*A/Ic0}\n;.param Rb = {(Vcc-Vbe0-Ic0/A*Re)/(Ic0/B)}\n.param Rb = 11.7k\n;.param Rb = 10.7k\n;.param Re = 750\n;.param Cprob = 68p\n .param Cprob = 33p
TEXT -136 -200 Left 2 ;.ic V(b) = 3.8V
TEXT -800 -592 Left 2 !.model BBY51_nxp D(\n+ RS=.4\n+ CJO=6.79E-12\n+ M=0.65\n+ VJ=1.03)
TEXT -904 -216 Left 2 !.tran 10u
TEXT -656 -256 Right 2 !.options plotwinsize=0
TEXT 696 520 Left 2 !.param Rmic = 10k\n.param Umic = .25V
TEXT 664 32 Left 2 ;D_NF
TEXT 672 -232 Left 2 ;D_HF
TEXT 664 -544 Left 2 ;Sperrbereich Vf < 0\nrD -> inf  CD~Cj0
TEXT 1032 -104 Left 2 !.param rD = 0.1\n.param CD = 0\n.param CG = 0\n.param Rbb = 0.1\n.param LG = 0.1
TEXT -528 -592 Left 2 !.model BBY51 D (\n+ Rs= 0.37 \n+ Cjo = 7.5p \n+ Vj=0.6 \n+ m=0.4)
TEXT 64 0 Left 2 ;33p\n47p
TEXT 320 80 Left 2 ;990ohm\n1.8k
TEXT 136 -256 Left 2 ;11.7k\n3.3k
TEXT -400 328 Left 2 !.param En = 1\n.param fa = 107.2Meg\n.param Vcc = 3V\n.param Ve0 = 1.5V\n.param Ic0 = 1.5mA\n.param Ls = 80nH
TEXT -1048 -688 Left 6 ;ECO- Transistor schwingt bei ca. 3.4GHz
RECTANGLE Normal 944 48 656 -160 2
RECTANGLE Normal 1112 -208 656 -464 2
RECTANGLE Normal 1856 592 560 -608 2
