Version 4
SHEET 1 3272 3108
WIRE 640 448 624 448
WIRE 688 448 640 448
WIRE 800 448 768 448
WIRE 800 464 800 448
WIRE 800 544 800 528
WIRE 1184 656 1184 624
WIRE 1312 720 1312 624
WIRE 544 752 544 720
WIRE 816 768 736 768
WIRE 848 768 816 768
WIRE 944 768 848 768
WIRE 992 768 944 768
WIRE 1152 768 1136 768
WIRE 1184 768 1184 736
WIRE 1184 768 1152 768
WIRE 1248 768 1184 768
WIRE 736 800 736 768
WIRE 1184 800 1184 768
WIRE 848 848 848 768
WIRE 944 864 944 768
WIRE 1312 864 1312 816
WIRE 336 880 320 880
WIRE 432 880 416 880
WIRE 512 880 496 880
WIRE 544 880 544 832
WIRE 544 880 512 880
WIRE 592 880 544 880
WIRE 688 880 672 880
WIRE 736 880 736 832
WIRE 736 880 688 880
WIRE 1184 896 1184 864
WIRE 1312 896 1312 864
WIRE 1312 896 1184 896
WIRE 544 912 544 880
WIRE 1184 912 1184 896
WIRE 1312 912 1312 896
WIRE 320 928 320 880
WIRE 736 928 736 880
WIRE 320 1024 320 1008
WIRE 544 1024 544 992
WIRE 736 1024 736 960
WIRE 848 1024 848 912
WIRE 944 1024 944 944
WIRE 1184 1024 1184 976
WIRE 1312 1024 1312 992
WIRE 1360 1184 1344 1184
WIRE 1376 1184 1360 1184
WIRE 544 1200 544 1184
WIRE 544 1200 368 1200
WIRE 576 1200 544 1200
WIRE 688 1200 656 1200
WIRE 704 1200 688 1200
WIRE 368 1232 368 1200
WIRE 1360 1232 1344 1232
WIRE 1376 1232 1360 1232
WIRE 1376 1280 1344 1280
WIRE 544 1296 544 1200
WIRE 224 1344 208 1344
WIRE 272 1344 224 1344
WIRE 368 1344 368 1312
WIRE 368 1344 336 1344
WIRE 480 1344 368 1344
WIRE 368 1408 368 1344
WIRE 544 1408 544 1392
WIRE 544 1424 544 1408
WIRE 368 1536 368 1488
WIRE 544 1536 544 1504
WIRE 288 1824 272 1824
WIRE 384 1824 368 1824
WIRE 464 1824 448 1824
WIRE 528 1824 464 1824
WIRE 560 1824 528 1824
WIRE 672 1824 640 1824
WIRE 688 1824 672 1824
WIRE 720 1824 688 1824
WIRE 816 1824 816 1776
WIRE 816 1824 752 1824
WIRE 848 1824 816 1824
WIRE 896 1824 848 1824
WIRE 928 1824 896 1824
WIRE 1104 1824 1072 1824
WIRE 1184 1824 1104 1824
WIRE 1216 1824 1184 1824
WIRE 1328 1824 1296 1824
WIRE 1408 1824 1328 1824
WIRE 1488 1824 1408 1824
WIRE 1568 1824 1488 1824
WIRE 1664 1824 1568 1824
WIRE 1664 1840 1664 1824
WIRE 464 1856 464 1824
WIRE 528 1856 528 1824
WIRE 816 1856 816 1824
WIRE 896 1856 896 1824
WIRE 1104 1856 1104 1824
WIRE 1488 1856 1488 1824
WIRE 1568 1856 1568 1824
WIRE 688 1872 688 1824
WIRE 1184 1872 1184 1824
WIRE 1328 1872 1328 1824
WIRE 1408 1872 1408 1824
WIRE 464 1968 464 1936
WIRE 528 1968 528 1936
WIRE 688 1968 688 1904
WIRE 816 1968 816 1920
WIRE 896 1968 896 1936
WIRE 1104 1968 1104 1936
WIRE 1184 1968 1184 1936
WIRE 1328 1968 1328 1936
WIRE 1408 1968 1408 1936
WIRE 1488 1968 1488 1936
WIRE 1568 1968 1568 1936
WIRE 1664 1968 1664 1920
FLAG 1312 1024 0
FLAG 1184 1024 0
FLAG 688 880 in
FLAG 1312 624 VCC_D
FLAG 1312 864 e
FLAG 1360 1184 Rb
FLAG 1360 1232 Re
FLAG 1152 768 b
FLAG 848 1024 0
FLAG 944 1024 0
FLAG 736 1024 0
FLAG 816 768 noHarmonic
FLAG 544 1024 0
FLAG 544 720 Vcc
FLAG 544 1536 0
FLAG 368 1536 0
FLAG 544 1408 e2
FLAG 320 1024 0
FLAG 512 880 m1
FLAG 320 880 Vmic
FLAG 800 544 0
FLAG 800 448 VCC_D
FLAG 1184 624 VCC
FLAG 224 1344 noHarmonicöö
FLAG 640 448 VCC
FLAG 544 1120 0
FLAG 688 1200 VCC
FLAG 816 1968 0
FLAG 896 1968 0
FLAG 528 1968 0
FLAG 272 1824 Vmic
FLAG 464 1968 0
FLAG 688 1968 0
FLAG 1104 1968 0
FLAG 1184 1968 0
FLAG 1328 1968 0
FLAG 1408 1968 0
FLAG 1488 1968 0
FLAG 1568 1968 0
FLAG 1664 1968 0
FLAG 672 1824 in2
FLAG 1104 1824 b2
FLAG 1568 1824 c2
FLAG 848 1824 h
FLAG 208 1344 0
SYMBOL res 1296 896 R0
SYMATTR InstName R1
SYMATTR Value {Re}
SYMBOL cap 1168 800 R0
SYMATTR InstName C1
SYMATTR Value 47p
SYMBOL cap 1168 912 R0
WINDOW 3 -69 156 Left 2
SYMATTR Value {100p*(1-En)}
SYMATTR InstName C2
SYMBOL source-Vmarker 624 448 R0
SYMATTR InstName U1
SYMATTR Value V={Vcc}
SYMBOL res 1168 640 R0
SYMATTR InstName Rbq1
SYMATTR Value 3.3k
SYMBOL ind 976 784 R270
WINDOW 0 32 56 VTop 2
WINDOW 3 5 56 VBottom 2
WINDOW 39 58 54 VTop 2
SYMATTR InstName L1
SYMATTR Value {Ls}
SYMATTR SpiceLine Rser=1.5
SYMBOL source-Vmarker 1344 1184 M180
SYMATTR InstName U5
SYMATTR Value V={Rb}
SYMBOL source-Vmarker 1344 1232 M180
SYMATTR InstName U6
SYMATTR Value V={Re}
SYMBOL source-Vmarker 1344 1280 M180
SYMATTR InstName U7
SYMATTR Value V={Vcc}
SYMBOL cap 832 912 M180
WINDOW 0 24 56 Left 2
WINDOW 3 24 8 Left 2
SYMATTR InstName C3
SYMATTR Value 47p
SYMBOL cap 1136 752 R90
WINDOW 0 0 32 VBottom 2
WINDOW 3 32 32 VTop 2
SYMATTR InstName C4
SYMATTR Value 1n
SYMBOL res 928 848 R0
SYMATTR InstName R2
SYMATTR Value 1.1k
SYMBOL res 688 864 R90
WINDOW 0 0 56 VBottom 2
WINDOW 3 32 56 VTop 2
SYMATTR InstName R3
SYMATTR Value 10k
SYMBOL res 528 736 R0
SYMATTR InstName R4
SYMATTR Value {Rmic}
SYMBOL res 528 896 R0
SYMATTR InstName R5
SYMATTR Value {Rmic}
SYMBOL source-V 320 912 M0
WINDOW 123 0 0 Left 2
WINDOW 39 0 0 Left 2
WINDOW 3 -75 152 Left 2
SYMATTR Value {Vcc/2+Umic}
SYMATTR InstName V1
SYMBOL res 528 1408 R0
SYMATTR InstName R7
SYMATTR Value 500
SYMBOL res 352 1216 R0
SYMATTR InstName R8
SYMATTR Value 1k
SYMBOL cap 336 1328 R90
WINDOW 0 0 32 VBottom 2
WINDOW 3 32 32 VTop 2
SYMATTR InstName C6
SYMATTR Value 1n
SYMBOL res 352 1392 R0
SYMATTR InstName R9
SYMATTR Value 10k
SYMBOL res 320 896 R270
WINDOW 0 32 56 VTop 2
WINDOW 3 0 56 VBottom 2
SYMATTR InstName R10
SYMATTR Value {Rs}
SYMBOL MDB_sym\\varactor 752 912 M180
WINDOW 0 -8 -13 Left 2
WINDOW 3 -8 -45 Left 2
SYMATTR InstName D1
SYMATTR Value BBY51
SYMBOL MDB_sym\\varactor 752 848 R0
SYMATTR InstName D2
SYMATTR Value BBY51
SYMBOL res 784 464 M270
WINDOW 0 32 56 VTop 2
WINDOW 3 0 56 VBottom 2
SYMATTR InstName R19
SYMATTR Value 1
SYMBOL cap 784 464 R0
SYMATTR InstName C10
SYMATTR Value 1µ
SYMBOL BFR92A 1248 720 R0
SYMATTR InstName U2
SYMBOL BFR92A 480 1296 R0
SYMATTR InstName U3
SYMBOL res 672 1216 M270
WINDOW 0 32 56 VTop 2
WINDOW 3 0 56 VBottom 2
SYMATTR InstName R6
SYMATTR Value 50
SYMBOL cap 528 1120 R0
WINDOW 3 -46 56 Left 2
SYMATTR InstName C5
SYMATTR Value 100n
SYMBOL cap 432 864 M90
WINDOW 0 0 32 VBottom 2
WINDOW 3 32 32 VTop 2
SYMATTR InstName C7
SYMATTR Value 100n
SYMBOL ind 912 1840 R270
WINDOW 0 32 56 VTop 2
WINDOW 3 5 56 VBottom 2
WINDOW 39 58 54 VTop 2
SYMATTR InstName L2
SYMATTR Value {Ls}
SYMATTR SpiceLine Rser=1.5
SYMBOL cap 800 1920 M180
WINDOW 0 24 56 Left 2
WINDOW 3 24 8 Left 2
SYMATTR InstName C11
SYMATTR Value 47p
SYMBOL cap 1072 1808 R90
WINDOW 0 0 32 VBottom 2
WINDOW 3 32 32 VTop 2
SYMATTR InstName C12
SYMATTR Value 1n
SYMBOL res 880 1840 R0
SYMATTR InstName R12
SYMATTR Value {1k*1.1k}
SYMBOL res 656 1808 R90
WINDOW 0 0 56 VBottom 2
WINDOW 3 32 56 VTop 2
SYMATTR InstName R13
SYMATTR Value 10k
SYMBOL res 448 1840 R0
WINDOW 0 -46 59 Left 2
WINDOW 3 -22 164 Left 2
SYMATTR InstName R14
SYMATTR Value {Rmic}
SYMBOL res 512 1840 R0
WINDOW 3 -8 168 Left 2
SYMATTR InstName R15
SYMATTR Value {Rmic}
SYMBOL res 272 1840 R270
WINDOW 0 32 56 VTop 2
WINDOW 3 0 56 VBottom 2
SYMATTR InstName R16
SYMATTR Value {Rs}
SYMBOL MDB_sym\\varactor 672 1856 R180
WINDOW 0 -8 -13 Left 2
WINDOW 3 -5 -77 Left 2
SYMATTR InstName D3
SYMATTR Value BBY51
SYMBOL MDB_sym\\varactor 704 1808 M270
WINDOW 0 -2 -32 VTop 2
WINDOW 3 -35 -41 VBottom 2
SYMATTR InstName D4
SYMATTR Value BBY51
SYMBOL cap 384 1808 M90
WINDOW 0 0 32 VBottom 2
WINDOW 3 32 32 VTop 2
SYMATTR InstName C13
SYMATTR Value 100n
SYMBOL res 1088 1840 R0
SYMATTR InstName R17
SYMATTR Value 3.3k
SYMBOL cap 1168 1872 R0
SYMATTR InstName C14
SYMATTR Value {47p/2}
SYMBOL res 1200 1840 R270
WINDOW 0 32 56 VTop 2
WINDOW 3 0 56 VBottom 2
SYMATTR InstName Rpi
SYMATTR Value {rpi}
SYMBOL cap 1312 1872 R0
WINDOW 3 -48 128 Left 2
SYMATTR InstName C15
SYMATTR Value {47p/2}
SYMBOL cap 1392 1872 R0
WINDOW 3 -29 130 Left 2
SYMATTR Value {100p*En}
SYMATTR InstName C16
SYMBOL res 1472 1840 R0
SYMATTR InstName R20
SYMATTR Value {r0}
SYMBOL res 1552 1840 R0
SYMATTR InstName R21
SYMATTR Value {Re}
SYMBOL bi 1664 1920 M180
WINDOW 0 24 80 Left 2
WINDOW 3 24 0 Left 2
SYMATTR InstName B2
SYMATTR Value I=B*I(rpi)
TEXT 1112 352 Left 2 !.param Vbe0 = 0.6V\n.param B = 124\n.param A = B/(1+B)\n.param Re = {Ve0*A/Ic0}\n.param Rb = {(Vcc-Vbe0-Ic0/A*Re)/(Ic0/B)}
TEXT 896 576 Left 2 ;.ic V(b) = 1V
TEXT 272 272 Left 2 !.model BBY51_nxp D(\n+ RS=.4\n+ CJO=6.79E-12\n+ M=0.65\n+ VJ=1.03)
TEXT 168 648 Left 2 !.tran 0 50u
TEXT 416 608 Right 2 !.options plotwinsize=0
TEXT 544 272 Left 2 !.model BBY51 D (\n+ Rs= 0.37 \n+ Cjo = 7.5p \n+ Vj=0.6 \n+ m=0.4)
TEXT 1128 832 Left 2 ;33p\n47p
TEXT 1392 944 Left 2 ;990ohm\n1.8k
TEXT 1120 656 Left 2 ;11.7k\n3.3k
TEXT 1240 1376 Left 2 !.param En = 0\n.param f0 = 107.2Meg\n.param Vcc = 3V\n.param Ve0 = 1.5V\n.param Ic0 = 1.2mA\n.param Ls = 80nH
TEXT 216 160 Left 3 ;ECO / VCO
TEXT 856 1192 Left 2 !.param Rmic = 10k\n.param Rs = 3.3k\n.param Umic = .25V
TEXT 2176 224 Left 2 ;* BFR92A SPICE MODEL\n* PHILIPS SEMICONDUCTORS\n* Date : September 1995\n*\n* PACKAGE : SOT23 DIE MODEL : BFR90A\n* 1: COLLECTOR; 2: BASE; 3: EMITTER;\n.SUBCKT BFR92A 1 2 3\nQ1 6 5 7 7 BFR90A\n* SOT23 parasitic model\n               Lb  4 5 .4n\n               Le  7 8 .83n\n               L1  2 4 .35n\n               L2  1 6 .17n\n               L3  3 8 .35n\n              Ccb  4 6 71f\n              Cbe  4 8 71f\n*\n* PHILIPS SEMICONDUCTORS\n* Filename:   BFR90A.PRM\n*\n.MODEL  BFR90A   NPN(\n+              IS = 4.11877E-016\n+              BF = 1.02639E+002\n+              NF = 9.97275E-001\n+             VAF = 6.26719E+001\n+             IKF = 3.20054E+000\n+             ISE = 4.01062E-015\n+              NE = 1.57708E+000\n+              BR = 1.81086E+001\n+              NR = 9.96202E-001\n+             VAR = 3.36915E+000\n+             IKR = 1.28155E+000\n+             ISC = 2.79905E-016\n+              NC = 1.07543E+000\n+              RB = 1.00000E+001\n+             IRB = 1.00000E-006\n+             RBM = 1.00000E+001\n+              RE = 1.16450E+000\n+              RC = 2.32000E+000\n+              EG = 1.11000E+000\n+             XTI = 3.00000E+000\n+             CJE = 8.90512E-013\n+             VJE = 6.00000E-001\n+             MJE = 2.58570E-001\n+              TF = 1.54973E-011\n+             XTF = 3.91402E+001\n+             VTF = 2.15279E+000\n+             ITF = 2.13776E-001\n+             CJC = 5.46563E-013\n+             VJC = 3.80824E-001\n+             MJC = 2.02935E-001)\n.ENDS\n*
TEXT 688 1080 Left 2 ;.step param Umic list -.25 .25
TEXT 1688 232 Left 2 !* BFR92A SPICE MODEL\n* PHILIPS SEMICONDUCTORS\n* Date : September 1995\n*\n* PACKAGE : SOT23 DIE MODEL : BFR90A\n* 1: COLLECTOR; 2: BASE; 3: EMITTER;\n.SUBCKT BFR92As 1 2 3\nQ1 6 5 7 7 BFR90A\n* SOT23 parasitic model\n               Lb  4 5 .4n\n               Le  7 8 .83n\n               L1  2 4 .35n\n               L2  1 6 .17n\n               L3  3 8 .35n\n              Ccb  4 6 71f\n              Cbe  4 8 71f\n*\n* PHILIPS SEMICONDUCTORS\n* Filename:   BFR90A.PRM\n*\n.MODEL  BFR90A   NPN(\n+              IS = 4.11877E-016\n+              BF = 1.02639E+002\n+              NF = 9.97275E-001\n+             VAF = 6.26719E+001\n+             IKF = 3.20054E+000\n+             ISE = 4.01062E-015\n+              NE = 1.57708E+000\n+              BR = 1.81086E+001\n+              NR = 9.96202E-001\n+             VAR = 3.36915E+000\n+             IKR = 1.28155E+000\n+             ISC = 2.79905E-016\n+              NC = 1.07543E+000\n+              RB = 1.00000E+001\n+             IRB = 1.00000E-006\n.ENDS\n*
TEXT 2704 224 Left 2 ;* BFR92AW SPICE MODEL\n* PHILIPS SEMICONDUCTORS\n* Date : September 1995\n*\n* PACKAGE : SOT323 DIE MODEL : BFR90A\n* 1: COLLECTOR; 2: BASE; 3: EMITTER\n.SUBCKT BFR92AW 1 2 3\nQ1 6 5 7 7 BFR90A\n* SOT323 parasitic model\n               Lb  4 5 .6n \n               Le  7 8 .6n\n               L1  2 4 .34n\n               L2  1 6 .1n\n               L3  3 8 .34n\n              Ccb  4 6 100f\n              Cbe  4 8 2f\n*\n* PHILIPS SEMICONDUCTORS\n* Filename:   BFR90A.PRM \n*\n.MODEL  BFR90A   NPN\n+              IS = 4.11877E-016\n+              BF = 1.02639E+002\n+              NF = 9.97275E-001\n+             VAF = 6.26719E+001\n+             IKF = 3.20054E+000\n+             ISE = 4.01062E-015\n+              NE = 1.57708E+000\n+              BR = 1.81086E+001\n+              NR = 9.96202E-001\n+             VAR = 3.36915E+000\n+             IKR = 1.28155E+000\n+             ISC = 2.79905E-016\n+              NC = 1.07543E+000\n+              RB = 1.00000E+001\n+             IRB = 1.00000E-006\n+             RBM = 1.00000E+001\n+              RE = 1.16450E+000\n+              RC = 2.32000E+000\n+              EG = 1.11000E+000\n+             XTI = 3.00000E+000\n+             CJE = 8.90512E-013\n+             VJE = 6.00000E-001\n+             MJE = 2.58570E-001\n+              TF = 1.54973E-011\n+             XTF = 3.91402E+001\n+             VTF = 2.15279E+000\n+             ITF = 2.13776E-001\n+             CJC = 5.46563E-013\n+             VJC = 3.80824E-001\n+             MJC = 2.02935E-001\n.ENDS
TEXT 1144 1688 Left 2 !.param rpi={B*26m/Ic0}
TEXT 1400 2096 Left 2 !.param Xca = { 1/(2*pi*f0*(47p/2+100p)) }\n.param r0 = 200k
TEXT 768 1624 Left 2 ;.ic i(L2)=-173u\n.ic V(h)=620m
RECTANGLE Normal 896 944 816 832 2
RECTANGLE Normal 864 1952 784 1840 2
