Version 4
SHEET 1 3272 3108
WIRE -160 288 -176 288
WIRE -176 336 -176 288
WIRE 96 368 80 368
WIRE 112 368 96 368
WIRE 96 416 80 416
WIRE 112 416 96 416
WIRE -176 432 -176 416
WIRE 96 464 80 464
WIRE 112 464 96 464
WIRE 1328 608 816 608
WIRE 816 672 816 608
WIRE 1280 672 896 672
WIRE 1328 672 1328 608
WIRE -112 752 -128 752
WIRE -16 752 -32 752
WIRE 64 752 48 752
WIRE 128 752 64 752
WIRE 160 752 128 752
WIRE 272 752 240 752
WIRE 288 752 272 752
WIRE 320 752 288 752
WIRE 416 752 416 704
WIRE 416 752 352 752
WIRE 448 752 416 752
WIRE 496 752 448 752
WIRE 528 752 496 752
WIRE 704 752 672 752
WIRE 784 752 704 752
WIRE 816 752 784 752
WIRE 896 752 896 672
WIRE 928 752 896 752
WIRE 1008 752 928 752
WIRE 1088 752 1008 752
WIRE 1168 752 1088 752
WIRE 1264 752 1168 752
WIRE 1360 752 1344 752
WIRE 64 784 64 752
WIRE 128 784 128 752
WIRE 416 784 416 752
WIRE 496 784 496 752
WIRE 704 784 704 752
WIRE 1088 784 1088 752
WIRE 1168 784 1168 752
WIRE 288 800 288 752
WIRE 784 800 784 752
WIRE 928 800 928 752
WIRE 1008 800 1008 752
WIRE 64 896 64 864
WIRE 128 896 128 864
WIRE 288 896 288 832
WIRE 416 896 416 848
WIRE 496 896 496 864
WIRE 704 896 704 864
WIRE 784 896 784 864
WIRE 928 896 928 864
WIRE 1008 896 1008 864
WIRE 1088 896 1088 864
WIRE 1168 896 1168 864
WIRE 0 1216 -16 1216
WIRE 16 1216 0 1216
WIRE 0 1264 -16 1264
WIRE 16 1264 0 1264
WIRE 0 1312 -16 1312
WIRE 16 1312 0 1312
WIRE 576 1312 528 1312
WIRE 640 1312 576 1312
WIRE 528 1328 528 1312
WIRE 880 1344 784 1344
WIRE 976 1344 880 1344
WIRE 80 1376 48 1376
WIRE 112 1376 80 1376
WIRE 784 1376 784 1344
WIRE 880 1376 880 1344
WIRE 976 1376 976 1344
WIRE 48 1408 48 1376
WIRE 640 1408 640 1312
WIRE 528 1456 528 1408
WIRE 784 1488 784 1456
WIRE 880 1488 880 1456
WIRE 880 1488 784 1488
WIRE 976 1488 976 1440
WIRE 976 1488 880 1488
WIRE 48 1520 48 1488
WIRE 880 1520 880 1488
WIRE 528 1552 528 1536
WIRE 640 1552 640 1472
WIRE 640 1552 528 1552
WIRE 528 1568 528 1552
FLAG 96 368 Rb
FLAG 96 416 Re
FLAG -176 432 0
FLAG -176 288 Vmic
FLAG 416 896 0
FLAG 496 896 0
FLAG 128 896 0
FLAG -128 752 Vmic
FLAG 64 896 0
FLAG 288 896 0
FLAG 704 896 0
FLAG 784 896 0
FLAG 928 896 0
FLAG 1008 896 0
FLAG 1088 896 0
FLAG 1168 896 0
FLAG 272 752 in2
FLAG 704 752 b2
FLAG 1168 752 c2
FLAG 448 752 h
FLAG 96 464 rpi
FLAG 784 1136 0
FLAG 704 1056 0
FLAG 1360 752 0
FLAG 0 1264 RLp
FLAG 528 1568 0
FLAG 880 1520 0
FLAG 576 1312 A
FLAG 880 1344 B
FLAG 0 1312 fosc
FLAG 0 1216 RLs
FLAG 48 1520 0
FLAG 80 1376 stim
SYMBOL source-Vmarker 80 368 M180
SYMATTR InstName U5
SYMATTR Value V={Rb}
SYMBOL source-Vmarker 80 416 M180
SYMATTR InstName U6
SYMATTR Value V={Re}
SYMBOL source-Vmarker 80 464 M180
SYMATTR InstName U7
SYMATTR Value V={rpi}
SYMBOL source-V -176 320 M0
WINDOW 123 0 0 Left 2
WINDOW 39 0 0 Left 2
WINDOW 3 -75 152 Left 2
SYMATTR Value {Vcc/2+Umic}
SYMATTR InstName V1
SYMBOL ind 512 768 R270
WINDOW 0 32 56 VTop 2
WINDOW 3 5 56 VBottom 2
WINDOW 39 58 54 VTop 2
SYMATTR InstName L2
SYMATTR Value {Ls}
SYMATTR SpiceLine Rser=1.5
SYMBOL cap 400 784 R0
SYMATTR InstName C11
SYMATTR Value 47p
SYMBOL cap 608 736 M90
WINDOW 0 0 32 VBottom 2
WINDOW 3 32 32 VTop 2
SYMATTR InstName C12
SYMATTR Value 1n
SYMBOL res 480 768 R0
SYMATTR InstName R12
SYMATTR Value {1k*1.1k}
SYMBOL res 144 768 R270
WINDOW 0 25 56 VTop 2
WINDOW 3 7 56 VBottom 2
SYMATTR InstName R13
SYMATTR Value 10k
SYMBOL res 48 768 R0
WINDOW 0 -46 59 Left 2
WINDOW 3 -22 164 Left 2
SYMATTR InstName R14
SYMATTR Value {Rmic}
SYMBOL res 112 768 R0
WINDOW 3 -8 168 Left 2
SYMATTR Value {Rmic}
SYMATTR InstName R15
SYMBOL res -128 768 R270
WINDOW 0 32 56 VTop 2
WINDOW 3 0 56 VBottom 2
SYMATTR InstName R16
SYMATTR Value {Rs}
SYMBOL MDB_sym\\varactor 272 784 R180
WINDOW 0 -8 -13 Left 2
WINDOW 3 -5 -77 Left 2
SYMATTR InstName D3
SYMATTR Value BBY51
SYMBOL MDB_sym\\varactor 304 736 M270
WINDOW 0 -2 -32 VTop 2
WINDOW 3 -35 -41 VBottom 2
SYMATTR InstName D4
SYMATTR Value BBY51
SYMBOL cap -16 736 M90
WINDOW 0 0 32 VBottom 2
WINDOW 3 32 32 VTop 2
SYMATTR InstName C13
SYMATTR Value 100n
SYMBOL res 688 768 R0
SYMATTR InstName R17
SYMATTR Value 3.3k
SYMBOL cap 768 800 R0
SYMATTR InstName C14
SYMATTR Value {47p/2}
SYMBOL res 832 768 R180
WINDOW 0 36 76 Left 2
WINDOW 3 36 40 Left 2
SYMATTR InstName Rpi
SYMATTR Value {rpi}
SYMBOL cap 912 800 R0
WINDOW 3 -48 128 Left 2
SYMATTR Value {47p/2*0}
SYMATTR InstName C15
SYMBOL cap 992 800 R0
WINDOW 3 -29 130 Left 2
SYMATTR Value {100p*En}
SYMATTR InstName C16
SYMBOL res 1072 768 R0
SYMATTR InstName R20
SYMATTR Value {r0}
SYMBOL res 1152 768 R0
SYMATTR InstName R21
SYMATTR Value {Re}
SYMBOL bi 784 1136 M180
WINDOW 0 24 80 Left 2
WINDOW 3 24 0 Left 2
SYMATTR InstName B2
SYMATTR Value I=B*I(rpi)
SYMBOL source-Vmarker -16 1264 M180
SYMATTR InstName U1
SYMATTR Value V={rlp}
SYMBOL res 800 1040 R90
WINDOW 0 7 56 VBottom 2
WINDOW 3 25 56 VTop 2
SYMATTR InstName R1
SYMATTR Value 100
SYMBOL crtl-I-I_INV 1360 752 R90
WINDOW 0 44 72 VRight 2
WINDOW 3 72 68 VCenter 2
SYMATTR InstName U2
SYMATTR Value F=125
SYMBOL res 512 1440 R0
SYMATTR InstName R2
SYMATTR Value {RLs}
SYMBOL ind 512 1312 R0
SYMATTR InstName L1
SYMATTR Value {L}
SYMBOL cap 624 1408 R0
SYMATTR InstName C1
SYMATTR Value {C}
SYMBOL res 864 1360 R0
WINDOW 3 -4 200 Left 2
SYMATTR InstName R3
SYMATTR Value {RLp*100t}
SYMBOL ind 768 1360 R0
WINDOW 39 -44 160 Left 2
SYMATTR InstName L3
SYMATTR Value {L}
SYMATTR SpiceLine Rpar=1000t
SYMBOL cap 960 1376 R0
SYMATTR InstName C2
SYMATTR Value {C}
SYMBOL source-Vmarker -16 1312 M180
SYMATTR InstName U3
SYMATTR Value V={fosc}
SYMBOL source-Vmarker -16 1216 M180
SYMATTR InstName U4
SYMATTR Value V={rls}
SYMBOL source-V 48 1392 R0
WINDOW 123 28 109 Left 2
WINDOW 39 0 0 Left 2
SYMATTR InstName V2
SYMATTR Value 0
SYMATTR Value2 AC 1
TEXT 840 224 Left 2 !.param Vbe0 = 0.6V\n.param B = 124\n.param A = B/(1+B)\n.param Re = {Ve0*A/Ic0}\n.param Rb = {(Vcc-Vbe0-Ic0/A*Re)/(Ic0/B)}
TEXT 272 272 Left 2 !.model BBY51_nxp D(\n+ RS=.4\n+ CJO=6.79E-12\n+ M=0.65\n+ VJ=1.03)
TEXT -64 304 Left 2 !.tran 2u
TEXT 176 272 Right 2 !.options plotwinsize=0
TEXT 264 432 Left 2 !.model BBY51 D (\n+ Rs= 0.37 \n+ Cjo = 7.5p \n+ Vj=0.6 \n+ m=0.4)
TEXT 568 240 Left 2 !.param En = 1\n.param f0 = 107.2Meg\n.param Vcc = 3V\n.param Ve0 = 1.5V\n.param Ic0 = 1.2mA\n.param Ls = 80nH
TEXT 216 160 Left 3 ;ECO / VCO
TEXT 576 440 Left 2 !.param Rmic = 10k\n.param Rs = 3.3k\n.param Umic = .25V
TEXT 856 408 Left 2 !.param rpi={B*26m/Ic0}
TEXT 848 448 Left 2 !.param Xca = { 1/(2*pi*f0*(47p/2+100p)) }\n.param r0 = 200k
TEXT 552 608 Left 2 !.ic i(L2)=1mA\n.ic V(b2)=-5V
TEXT 224 1608 Left 2 !.param L = 110n\n.param RLs = 1\n.param C = 22p\n.param fosc = { 1/(2*pi*sqrt(L*C)) }\n.param RLp = { (2*pi*fosc*L)**2/RLs }
TEXT 480 1112 Left 2 ;.ic I(L1)=1m\n.ic I(L3)=1m
TEXT 224 1112 Left 2 !.ic V(A)=1\n.ic V(B)=1m
RECTANGLE Normal 464 880 384 768 2
