Version 4
SHEET 1 1312 680
WIRE 624 96 512 96
WIRE 656 96 624 96
WIRE 256 144 224 144
WIRE 272 144 256 144
WIRE 640 368 528 368
WIRE 672 368 640 368
FLAG 256 144 f1
FLAG 512 256 0
FLAG 624 96 phi1a
FLAG 528 608 0
FLAG 640 368 phi1b
SYMBOL EIT_PLL\\frequency_phase_step 176 144 R0
SYMATTR Value f0=29kHz phi0=0
SYMATTR Value2 t1=20ms
SYMATTR SpiceLine f1=33kHz phi1=180
SYMATTR InstName U1
SYMBOL source-V 512 80 R0
WINDOW 123 0 0 Left 2
WINDOW 39 0 0 Left 2
SYMATTR InstName V1
SYMATTR Value PULSE(0 {2*pi*(33k-29k)} 20m 1)
SYMBOL source-V 512 160 R0
WINDOW 123 0 0 Left 2
WINDOW 39 0 0 Left 2
SYMATTR InstName V2
SYMATTR Value PULSE(0 {pi} 20ms)
SYMBOL source-V 528 352 R0
WINDOW 123 0 0 Left 2
WINDOW 39 0 0 Left 2
SYMATTR InstName V3
SYMATTR Value PULSE(0 {2*pi*(33k-29k)} 20m 1)
SYMBOL source-V 528 432 R0
WINDOW 123 0 0 Left 2
WINDOW 39 0 0 Left 2
SYMATTR InstName V4
SYMATTR Value PULSE(0 {pi} 20ms)
SYMBOL source-V 528 512 R0
WINDOW 123 0 0 Left 2
WINDOW 39 0 0 Left 2
SYMATTR InstName V5
SYMATTR Value PULSE(0 {2*pi*(29kHz-30kHz)} 0m 1)
TEXT -40 40 Left 2 ;Fequenzsprung von 29kHz auf 33kHz bei gelcihzeitigem Phasensrpung von 180deg. bei t=20ms
TEXT 8 288 Left 2 ;reale PLL (Zeitbereich)
TEXT 392 288 Left 2 ;phasendarstellung (Laplace-Bereich) \nV1:Frequenzsprung, V2 Phasensprung)
TEXT 744 128 Left 2 ;Rampe
TEXT 744 208 Left 2 ;sprung
TEXT 824 264 Left 2 ;für f0=29kHz
TEXT 824 528 Left 2 ;bei  f0=30kHz
TEXT 368 656 Left 2 ;mnabenötigt am Anfang eine negative Rampe (-1kHz)
TEXT 760 400 Left 2 ;Rampe +4kHz bei t=20ms
TEXT 760 480 Left 2 ;sprung
TEXT 712 568 Left 2 ;Rampe -1kHz bei t=0ms
TEXT 8 -16 Left 2 !.tran 50m
