Version 4
SHEET 1 1032 1268
WIRE 720 448 720 432
WIRE 560 512 528 512
WIRE 160 544 144 544
WIRE 256 544 240 544
WIRE 256 560 256 544
WIRE 912 576 880 576
WIRE 304 592 224 592
WIRE 320 592 304 592
WIRE 352 592 320 592
WIRE 448 592 432 592
WIRE 464 592 464 512
WIRE 464 592 448 592
WIRE 560 592 560 512
WIRE 560 592 544 592
WIRE 640 592 624 592
WIRE 672 592 640 592
WIRE 688 592 672 592
WIRE 144 608 144 544
WIRE 64 624 48 624
WIRE 144 624 144 608
WIRE -144 640 -192 640
WIRE -80 640 -144 640
WIRE -128 672 -144 672
WIRE -80 672 -128 672
WIRE 640 672 640 592
WIRE 640 672 576 672
WIRE 64 688 48 688
WIRE 144 688 144 656
WIRE 224 688 224 672
WIRE 496 688 464 688
WIRE 144 736 144 688
WIRE 176 736 144 736
WIRE 304 736 304 592
WIRE 304 736 256 736
WIRE 448 736 448 592
WIRE 496 736 448 736
WIRE 576 768 576 752
WIRE 464 784 464 688
WIRE -144 816 -144 672
WIRE 912 816 912 576
WIRE 912 816 -144 816
WIRE -368 864 -384 864
WIRE -240 864 -272 864
WIRE -208 864 -240 864
WIRE 448 896 416 896
WIRE -384 976 -384 864
WIRE -336 976 -384 976
WIRE -256 976 -336 976
WIRE -224 976 -256 976
WIRE -96 976 -128 976
WIRE -80 976 -96 976
WIRE 224 976 208 976
WIRE 240 976 224 976
WIRE 336 976 320 976
WIRE 352 976 352 896
WIRE 352 976 336 976
WIRE 448 976 448 896
WIRE 448 976 432 976
WIRE 528 976 512 976
WIRE 560 976 528 976
WIRE 592 976 560 976
WIRE 768 976 720 976
WIRE -336 1040 -336 976
WIRE 528 1056 528 976
WIRE 528 1056 464 1056
WIRE 384 1072 352 1072
WIRE 336 1120 336 976
WIRE 384 1120 336 1120
WIRE -96 1136 -96 976
WIRE -16 1136 -96 1136
WIRE 144 1136 80 1136
WIRE 192 1136 144 1136
WIRE 464 1152 464 1136
WIRE 720 1152 672 1152
WIRE 752 1152 720 1152
WIRE 352 1168 352 1072
WIRE -336 1184 -336 1120
WIRE -176 1216 -176 1024
WIRE 576 1216 576 1152
WIRE 576 1216 -176 1216
WIRE 768 1216 768 976
WIRE 768 1216 576 1216
FLAG -336 1184 0
FLAG -240 864 f1_l
FLAG 720 448 0
FLAG 464 1152 0
FLAG 352 1168 0
FLAG 224 976 db2
FLAG 560 976 fb2
FLAG 768 976 phi2
FLAG -96 976 phie2
FLAG -256 976 phi1
FLAG 144 1136 omegae2
FLAG 720 1152 f2_l
FLAG -144 640 f1
FLAG -128 672 f2
FLAG 224 688 0
FLAG 256 560 0
FLAG 576 768 0
FLAG 464 784 0
FLAG 320 592 db1
FLAG 672 592 fb1
SYMBOL source-V -336 1024 R0
WINDOW 3 -77 130 Left 2
WINDOW 123 0 0 Left 2
WINDOW 39 0 0 Left 2
SYMATTR Value PULSE(0 {2*pi*df} 10m 1)
SYMATTR InstName V1
SYMBOL EIT_PLL\\phase_to_frequency -304 864 R0
SYMATTR InstName U1
SYMATTR Value K={1/(2*pi)}
SYMBOL source-V 720 336 R0
WINDOW 123 0 0 Left 2
WINDOW 39 0 0 Left 2
SYMATTR InstName V2
SYMATTR Value SINE(0 1 100k)
SYMBOL res 224 992 R270
WINDOW 0 25 56 VTop 2
WINDOW 3 7 56 VBottom 2
SYMATTR InstName R1
SYMATTR Value 10k
SYMBOL res 336 992 R270
WINDOW 0 25 56 VTop 2
WINDOW 3 7 56 VBottom 2
SYMATTR InstName R2
SYMATTR Value 5k
SYMBOL cap 448 992 R270
WINDOW 0 32 32 VTop 2
WINDOW 3 0 32 VBottom 2
SYMATTR InstName C1
SYMATTR Value 159n
SYMBOL crtl-V-V 464 1040 R0
SYMATTR InstName E1
SYMATTR Value 10000
SYMBOL cap 352 912 R270
WINDOW 0 32 32 VTop 2
WINDOW 3 0 32 VBottom 2
SYMATTR InstName C2
SYMATTR Value {c2}
SYMBOL EIT_PLL\\integrator 656 976 R0
SYMATTR Value KI={-2*pi*100}
SYMATTR InstName U3
SYMBOL EIT_PLL\\Subtraction -176 976 R0
SYMATTR InstName U9
SYMBOL EIT_PLL\\phase_to_frequency 48 1136 R0
SYMATTR InstName U10
SYMATTR Value K={1/(2*pi*100)}
SYMBOL EIT_PLL\\phase_to_frequency 640 1152 R0
SYMATTR InstName U12
SYMATTR Value K={1/(2*pi)}
SYMBOL EIT_PLL\\PD_PFD_laplace 64 976 R0
SYMATTR Value A={2*pi}
SYMATTR InstName U8
SYMBOL EIT_PLL\\pd_pfd_real -80 656 R0
SYMATTR InstName U2
SYMATTR Value2 High={2*pi}
SYMATTR SpiceLine2 TD=50n
SYMBOL EIT_PLL\\frequency_phase_step -240 640 R0
SYMATTR Value f0={f0} phi0=0
SYMATTR Value2 t1=10ms
SYMATTR SpiceLine f1={f0+df} phi1=0
SYMATTR InstName U4
SYMBOL crtl-V-V 224 576 R0
SYMATTR InstName E2
SYMATTR Value 10000
SYMBOL res 48 640 R270
WINDOW 0 25 56 VTop 2
WINDOW 3 7 56 VBottom 2
SYMATTR InstName R3
SYMATTR Value 1k
SYMBOL res 48 704 R270
WINDOW 0 25 56 VTop 2
WINDOW 3 7 56 VBottom 2
SYMATTR InstName R4
SYMATTR Value 1k
SYMBOL res 160 752 R270
WINDOW 0 25 56 VTop 2
WINDOW 3 7 56 VBottom 2
SYMATTR InstName R5
SYMATTR Value 1k
SYMBOL res 144 560 R270
WINDOW 0 25 56 VTop 2
WINDOW 3 7 56 VBottom 2
SYMATTR InstName R6
SYMATTR Value 1k
SYMBOL res 336 608 R270
WINDOW 0 25 56 VTop 2
WINDOW 3 7 56 VBottom 2
SYMATTR InstName R8
SYMATTR Value 10k
SYMBOL res 448 608 R270
WINDOW 0 25 56 VTop 2
WINDOW 3 7 56 VBottom 2
SYMATTR InstName R9
SYMATTR Value 5k
SYMBOL cap 560 608 R270
WINDOW 0 32 32 VTop 2
WINDOW 3 0 32 VBottom 2
SYMATTR InstName C5
SYMATTR Value 159n
SYMBOL crtl-V-V 576 656 R0
SYMATTR InstName E4
SYMATTR Value 10000
SYMBOL cap 464 528 R270
WINDOW 0 32 32 VTop 2
WINDOW 3 0 32 VBottom 2
SYMATTR InstName C6
SYMATTR Value {c2}
SYMBOL EIT_PLL\\vco_real 816 560 R0
SYMATTR Value Kf=-100
SYMATTR SpiceLine f0={f0}
SYMATTR InstName U5
TEXT 48 368 Left 2 ;tau1=1/(2*pi*100)s=1,59ms
TEXT 48 400 Left 2 ;tau2=2*d/omegar=0,955ms
TEXT 64 328 Left 2 ;fr=100Hz, d=0,3
TEXT 376 336 Left 2 ;R1 vorgegeben=10kOhm
TEXT 376 376 Left 2 ;C1=tau1/R1=159nF
TEXT 368 408 Left 2 ;R2=tau2/C1=6k
TEXT -288 424 Left 2 !.tran 0 70m 0 100u uic
TEXT 40 456 Left 2 ;tau2=2*0,5/omegar=1,59msms
TEXT 368 456 Left 2 ;R2=tau2/C1=10k
TEXT -416 776 Left 2 !.param f0=10k df=2k c2=3n
