Version 4
SHEET 1 1032 888
WIRE 448 448 416 448
WIRE -256 528 -304 528
WIRE -224 528 -256 528
WIRE -96 528 -128 528
WIRE -80 528 -96 528
WIRE 224 528 208 528
WIRE 240 528 224 528
WIRE 336 528 320 528
WIRE 352 528 352 448
WIRE 352 528 336 528
WIRE 448 528 448 448
WIRE 448 528 432 528
WIRE 528 528 512 528
WIRE 560 528 528 528
WIRE 592 528 560 528
WIRE 768 528 720 528
WIRE -304 576 -304 528
WIRE 528 608 528 528
WIRE 528 608 464 608
WIRE 384 624 304 624
WIRE 336 672 336 528
WIRE 384 672 336 672
WIRE -304 688 -304 656
WIRE -96 688 -96 528
WIRE -48 688 -96 688
WIRE 80 688 48 688
WIRE 96 688 80 688
WIRE 208 688 192 688
WIRE 304 688 208 688
WIRE 192 704 192 688
WIRE 464 704 464 688
WIRE -176 816 -176 576
WIRE 768 816 768 528
WIRE 768 816 -176 816
FLAG 464 704 0
FLAG 224 528 db
FLAG 560 528 fb
FLAG 768 528 phi2
FLAG -96 528 phie
FLAG -304 688 0
FLAG -256 528 phi1
FLAG 80 688 xx
FLAG 192 784 0
FLAG 208 688 omegae_norm
SYMBOL res 224 544 R270
WINDOW 0 25 56 VTop 2
WINDOW 3 7 56 VBottom 2
SYMATTR InstName R3
SYMATTR Value 10k
SYMBOL res 336 544 R270
WINDOW 0 25 56 VTop 2
WINDOW 3 7 56 VBottom 2
SYMATTR InstName R4
SYMATTR Value 10k
SYMBOL cap 448 544 R270
WINDOW 0 32 32 VTop 2
WINDOW 3 -23 -18 VBottom 2
SYMATTR InstName C1
SYMATTR Value 159n IC=3.14
SYMBOL crtl-V-V 464 592 R0
SYMATTR InstName E2
SYMATTR Value 10000
SYMBOL cap 352 464 R270
WINDOW 0 32 32 VTop 2
WINDOW 3 0 32 VBottom 2
SYMATTR InstName C2
SYMATTR Value 1f
SYMBOL EIT_PLL\\integrator 656 528 R0
SYMATTR Value KI={-2*pi*100}
SYMATTR InstName U4
SYMATTR Value2 IC={-pi}
SYMBOL EIT_PLL\\Subtraction -176 528 R0
SYMATTR InstName U6
SYMBOL source-V -304 560 R0
WINDOW 3 -66 165 Left 2
WINDOW 123 0 0 Left 2
WINDOW 39 0 0 Left 2
SYMATTR Value PULSE(0 {dphi} 40m)
SYMATTR InstName V1
SYMBOL EIT_PLL\\phase_to_frequency 16 688 R0
SYMATTR InstName U7
SYMATTR Value K={1/(2*pi*100)}
SYMBOL EIT_PLL\\PD_RS_laplace 64 528 R0
SYMATTR Value A=6.28
SYMATTR InstName U1
SYMATTR Value2 B=0
SYMBOL source-Vmarker 304 624 R0
SYMATTR Value V=3.14V
SYMATTR InstName U2
SYMBOL Function-V 192 688 R0
SYMATTR InstName B1
SYMATTR Value V=limit(v(xx),-2,1)
TEXT 56 288 Left 2 ;tau1=1/(2*pi*100)s=1,59ms
TEXT 56 320 Left 2 ;tau2=2*d/omegar=0,955ms
TEXT 72 248 Left 2 ;fr=100Hz, d=0,3
TEXT 384 256 Left 2 ;R1 vorgegeben=10kOhm
TEXT 384 296 Left 2 ;C1=tau1/R1=159nF
TEXT 376 328 Left 2 ;R2=tau2/C1=6k
TEXT -280 344 Left 2 !.tran 0 100m 20m 100u uic
TEXT 48 376 Left 2 ;tau2=2*0,5/omegar=1,59msms
TEXT 376 376 Left 2 ;R2=tau2/C1=10k
TEXT -264 840 Left 2 ;Achten auf Anfangsbedingung: Integrator: IC=-pi und C1: IC=3.14Volt
TEXT -304 272 Left 2 !.param dphi=1
TEXT -328 304 Left 2 ;.step param df 100 500 100
