Version 4
SHEET 1 1032 804
WIRE -48 128 -96 128
WIRE 16 128 -48 128
WIRE 160 144 112 144
WIRE 176 144 160 144
WIRE 272 144 256 144
WIRE 304 144 272 144
WIRE 336 144 304 144
WIRE 16 160 -16 160
WIRE 576 176 528 176
WIRE 272 192 272 144
WIRE 272 288 272 256
WIRE -16 336 -16 160
WIRE 64 336 -16 336
WIRE 576 336 576 176
WIRE 576 336 64 336
WIRE -256 480 -304 480
WIRE -224 480 -256 480
WIRE -96 480 -128 480
WIRE -80 480 -96 480
WIRE 224 480 208 480
WIRE 240 480 224 480
WIRE 352 480 320 480
WIRE 384 480 352 480
WIRE 416 480 384 480
WIRE 592 480 544 480
WIRE 352 512 352 480
WIRE -304 528 -304 480
WIRE 352 608 352 576
WIRE -304 640 -304 608
WIRE -96 640 -96 480
WIRE -16 640 -96 640
WIRE 144 640 80 640
WIRE 192 640 144 640
WIRE -176 688 -176 528
WIRE 592 688 592 480
WIRE 592 688 -176 688
FLAG -48 128 f1
FLAG 64 336 f2
FLAG 160 144 d
FLAG 304 144 f
FLAG 224 480 db
FLAG 384 480 fb
FLAG 592 480 phi2
FLAG -96 480 phie
FLAG -304 640 0
FLAG -256 480 phi1
FLAG 144 640 omegae
FLAG 272 288 0
FLAG 352 608 0
SYMBOL EIT_PLL\\PD_MULT_real 64 144 R0
SYMATTR Value Gain=2
SYMATTR InstName U1
SYMBOL res 160 160 R270
WINDOW 0 25 56 VTop 2
WINDOW 3 7 56 VBottom 2
SYMATTR InstName R1
SYMATTR Value 10k
SYMBOL EIT_PLL\\vco_real 464 112 R0
WINDOW 40 -16 155 Left 2
SYMATTR Value Kf=-100
SYMATTR SpiceLine f0=30k
SYMATTR InstName U2
SYMBOL EIT_PLL\\frequency_phase_step -144 128 R0
WINDOW 40 -156 123 Left 2
SYMATTR Value f0=30k phi0=0
SYMATTR Value2 t1=10ms
SYMATTR SpiceLine f1=30k phi1=90
SYMATTR InstName U3
SYMBOL res 224 496 R270
WINDOW 0 25 56 VTop 2
WINDOW 3 7 56 VBottom 2
SYMATTR InstName R3
SYMATTR Value 10k
SYMBOL EIT_PLL\\integrator 480 480 R0
SYMATTR Value KI={-2*pi*100}
SYMATTR InstName U4
SYMBOL EIT_PLL\\PD_MULT_laplace 64 480 R0
SYMATTR Value A=1
SYMATTR InstName U5
SYMBOL EIT_PLL\\Subtraction -176 480 R0
SYMATTR InstName U6
SYMBOL source-V -304 512 R0
WINDOW 123 0 0 Left 2
WINDOW 39 0 0 Left 2
SYMATTR InstName V1
SYMATTR Value PULSE(1m {pi/2} 10m)
SYMBOL EIT_PLL\\phase_to_frequency 48 640 R0
SYMATTR InstName U7
SYMBOL cap 256 192 R0
SYMATTR InstName C1
SYMATTR Value {cx}
SYMBOL cap 336 512 R0
SYMATTR InstName C2
SYMATTR Value {cx}
TEXT -88 -24 Left 2 ;tau1=1/(2*pi*100)s=1,59ms
TEXT -88 16 Left 2 ;tau2=2*d/omegar=0,955ms
TEXT -80 -72 Left 2 ;fr=100Hz, d=0,3
TEXT 248 -64 Left 2 ;R1 vorgegeben=10kOhm
TEXT -312 -40 Left 2 !.tran 50m uic
