Version 4
SHEET 1 1032 1108
WIRE -256 -64 -288 -64
WIRE -224 -64 -256 -64
WIRE 816 -48 -32 -48
WIRE -288 -32 -288 -64
WIRE 128 0 96 0
WIRE 240 0 208 0
WIRE 240 16 240 0
WIRE -32 48 -32 -48
WIRE 0 48 -32 48
WIRE -288 64 -288 48
WIRE 96 64 96 0
WIRE 464 64 432 64
WIRE 0 80 -32 80
WIRE 240 96 240 80
WIRE -256 112 -288 112
WIRE -240 112 -256 112
WIRE -288 128 -288 112
WIRE -64 128 -160 128
WIRE -32 128 -32 80
WIRE -32 128 -64 128
WIRE 96 128 96 64
WIRE 128 128 96 128
WIRE 816 128 816 -48
WIRE 816 128 784 128
WIRE -160 144 -160 128
WIRE 240 144 224 144
WIRE 256 144 240 144
WIRE 352 144 336 144
WIRE 368 144 368 64
WIRE 368 144 352 144
WIRE 464 144 464 64
WIRE 464 144 448 144
WIRE 544 144 528 144
WIRE 576 144 544 144
WIRE 592 144 576 144
WIRE 128 160 96 160
WIRE 816 176 784 176
WIRE -32 208 -32 128
WIRE 0 208 -32 208
WIRE 96 224 96 160
WIRE 544 224 544 144
WIRE 544 224 480 224
WIRE -288 240 -288 208
WIRE 0 240 -32 240
WIRE 400 240 368 240
WIRE -160 256 -160 224
WIRE 352 288 352 144
WIRE 400 288 352 288
WIRE 480 320 480 304
WIRE 368 336 368 240
WIRE -32 384 -32 240
WIRE 48 384 -32 384
WIRE 816 384 816 176
WIRE 816 384 48 384
FLAG 480 320 0
FLAG 368 336 0
FLAG -64 128 f1
FLAG 48 384 f2
FLAG 240 144 d
FLAG 576 144 f
FLAG -288 240 0
FLAG -256 112 sin
FLAG -288 64 0
FLAG -256 -64 mod
FLAG -160 256 0
FLAG 96 0 out
FLAG 240 96 0
FLAG 240 0 outf
SYMBOL EIT_PLL\\PD_MULT_real 48 224 R0
SYMATTR Value Gain=2
SYMATTR InstName U1
SYMBOL res 240 160 R270
WINDOW 0 25 56 VTop 2
WINDOW 3 7 56 VBottom 2
SYMATTR InstName R1
SYMATTR Value 10k
SYMBOL res 352 160 R270
WINDOW 0 25 56 VTop 2
WINDOW 3 7 56 VBottom 2
SYMATTR InstName R2
SYMATTR Value 10k
SYMBOL cap 464 160 R270
WINDOW 0 32 32 VTop 2
WINDOW 3 0 32 VBottom 2
SYMATTR InstName C1
SYMATTR Value 159n
SYMBOL EIT_PLL\\vco_real 720 112 R0
WINDOW 40 -16 155 Left 2
SYMATTR Value Kf=-100
SYMATTR SpiceLine f0=9.61k
SYMATTR InstName U2
SYMBOL crtl-V-V 480 208 R0
SYMATTR InstName E1
SYMATTR Value 10000
SYMBOL cap 368 80 R270
WINDOW 0 32 32 VTop 2
WINDOW 3 0 32 VBottom 2
SYMATTR InstName C2
SYMATTR Value {c2}
SYMBOL EIT_PLL\\PD_MULT_real 48 64 R0
SYMATTR Value Gain=2
SYMATTR InstName U8
SYMBOL source-V -288 112 R0
WINDOW 3 -32 160 Left 2
WINDOW 123 0 0 Left 2
WINDOW 39 0 0 Left 2
SYMATTR Value SINE(0 1 10k)
SYMATTR InstName V1
SYMBOL source-V -288 -48 R0
WINDOW 3 -33 -97 Left 2
WINDOW 123 0 0 Left 2
WINDOW 39 0 0 Left 2
SYMATTR Value PULSE(+1 -1 10m 1u 1u 1m 3m)
SYMATTR InstName V2
SYMBOL Function-V -160 128 R0
WINDOW 3 -60 -34 Left 2
SYMATTR Value V=v(sin)*v(mod)
SYMATTR InstName B1
SYMBOL EIT_PLL\\PD_MULT_real 176 144 R0
SYMATTR Value Gain=2
SYMATTR InstName U3
SYMBOL res 112 16 R270
WINDOW 0 25 56 VTop 2
WINDOW 3 7 56 VBottom 2
SYMATTR InstName R3
SYMATTR Value 1k
SYMBOL cap 224 16 R0
SYMATTR InstName C3
SYMATTR Value 100n
TEXT 32 -152 Left 2 ;tau1=1/(2*pi*100)s=1,59ms
TEXT 32 -120 Left 2 ;tau2=2*d/omegar=0,955ms
TEXT 48 -192 Left 2 ;fr=100Hz, d=0,3
TEXT 360 -184 Left 2 ;R1 vorgegeben=10kOhm
TEXT 360 -144 Left 2 ;C1=tau1/R1=159nF
TEXT 352 -112 Left 2 ;R2=tau2/C1=6k
TEXT -272 -192 Left 2 !.tran 450m uic
TEXT 32 -88 Left 2 ;tau2=2*0,5/omegar=1,59msms
TEXT 336 -64 Left 2 ;R2=tau2/C1=10k
TEXT -296 296 Left 2 !.param df=0 c2=10n
TEXT 264 -8 Left 2 ;tau=R*C=1kOhm*0.1uF=0,1ms
