Version 4
SHEET 1 1032 804
WIRE 352 80 320 80
WIRE 768 112 688 112
WIRE 800 112 768 112
WIRE -80 144 -128 144
WIRE -16 144 -80 144
WIRE 128 160 80 160
WIRE 144 160 128 160
WIRE 240 160 224 160
WIRE 256 160 256 80
WIRE 256 160 240 160
WIRE 352 160 352 80
WIRE 352 160 336 160
WIRE 432 160 416 160
WIRE 464 160 432 160
WIRE 480 160 464 160
WIRE -16 176 -48 176
WIRE 832 176 768 176
WIRE 688 192 688 112
WIRE 688 192 672 192
WIRE 704 192 688 192
WIRE 432 240 432 160
WIRE 432 240 368 240
WIRE 288 256 256 256
WIRE 240 304 240 160
WIRE 288 304 240 304
WIRE 832 304 832 176
WIRE 368 336 368 320
WIRE 256 352 256 256
WIRE -48 400 -48 176
WIRE 32 400 -48 400
WIRE 832 400 832 384
WIRE 832 400 32 400
WIRE 448 448 416 448
WIRE -256 528 -304 528
WIRE -224 528 -256 528
WIRE -96 528 -128 528
WIRE -80 528 -96 528
WIRE 224 528 208 528
WIRE 240 528 224 528
WIRE 336 528 320 528
WIRE 352 528 352 448
WIRE 352 528 336 528
WIRE 448 528 448 448
WIRE 448 528 432 528
WIRE 528 528 512 528
WIRE 560 528 528 528
WIRE 592 528 560 528
WIRE 768 528 720 528
WIRE -304 576 -304 528
WIRE 528 608 528 528
WIRE 528 608 464 608
WIRE 384 624 352 624
WIRE 336 672 336 528
WIRE 384 672 336 672
WIRE -304 688 -304 656
WIRE -96 688 -96 528
WIRE -16 688 -96 688
WIRE 144 688 80 688
WIRE 192 688 144 688
WIRE 464 704 464 688
WIRE 352 720 352 624
WIRE -176 768 -176 576
WIRE 768 768 768 528
WIRE 768 768 -176 768
FLAG 368 336 0
FLAG 256 352 0
FLAG -80 144 f1
FLAG 32 400 f2
FLAG 128 160 d
FLAG 464 160 f
FLAG 464 704 0
FLAG 352 720 0
FLAG 224 528 db
FLAG 560 528 fb
FLAG 768 528 phi2
FLAG -96 528 phie
FLAG -304 688 0
FLAG -256 528 phi1
FLAG 144 688 omegae
FLAG 768 112 outcos
SYMBOL EIT_PLL\\PD_MULT_real 32 160 R0
SYMATTR Value Gain={2*pi/4}
SYMATTR InstName U1
SYMBOL res 128 176 R270
WINDOW 0 25 56 VTop 2
WINDOW 3 7 56 VBottom 2
SYMATTR InstName R1
SYMATTR Value 10k
SYMBOL res 240 176 R270
WINDOW 0 25 56 VTop 2
WINDOW 3 7 56 VBottom 2
SYMATTR InstName R2
SYMATTR Value 10k
SYMBOL cap 352 176 R270
WINDOW 0 32 32 VTop 2
WINDOW 3 0 32 VBottom 2
SYMATTR InstName C1
SYMATTR Value 159n
SYMBOL EIT_PLL\\vco_real 608 128 R0
WINDOW 40 -16 155 Left 2
SYMATTR Value Kf=-100
SYMATTR SpiceLine f0=30k
SYMATTR InstName U2
SYMBOL crtl-V-V 368 224 R0
SYMATTR InstName E1
SYMATTR Value 10000
SYMBOL EIT_PLL\\frequency_phase_step -176 144 R0
WINDOW 40 -156 123 Left 2
SYMATTR Value f0=150k phi0=0
SYMATTR Value2 t1=10ms
SYMATTR SpiceLine f1=150.1k phi1=0.0
SYMATTR InstName U3
SYMBOL cap 256 96 R270
WINDOW 0 32 32 VTop 2
WINDOW 3 0 32 VBottom 2
SYMATTR InstName C2
SYMATTR Value {c2}
SYMBOL res 224 544 R270
WINDOW 0 25 56 VTop 2
WINDOW 3 7 56 VBottom 2
SYMATTR InstName R3
SYMATTR Value 10k
SYMBOL res 336 544 R270
WINDOW 0 25 56 VTop 2
WINDOW 3 7 56 VBottom 2
SYMATTR InstName R4
SYMATTR Value 10k
SYMBOL cap 448 544 R270
WINDOW 0 32 32 VTop 2
WINDOW 3 0 32 VBottom 2
SYMATTR InstName C3
SYMATTR Value 159n
SYMBOL crtl-V-V 464 592 R0
SYMATTR InstName E2
SYMATTR Value 10000
SYMBOL cap 352 464 R270
WINDOW 0 32 32 VTop 2
WINDOW 3 0 32 VBottom 2
SYMATTR InstName C4
SYMATTR Value {c2}
SYMBOL EIT_PLL\\integrator 656 528 R0
SYMATTR Value KI={-2*pi*100}
SYMATTR InstName U4
SYMBOL EIT_PLL\\PD_MULT_laplace 64 528 R0
SYMATTR Value A=1
SYMATTR InstName U5
SYMBOL EIT_PLL\\Subtraction -176 528 R0
SYMATTR InstName U6
SYMBOL source-V -304 560 R0
WINDOW 3 -66 165 Left 2
WINDOW 123 0 0 Left 2
WINDOW 39 0 0 Left 2
SYMATTR Value PULSE(0 {2*pi*20} 10m 1)
SYMATTR InstName V1
SYMBOL EIT_PLL\\phase_to_frequency 48 688 R0
SYMATTR InstName U7
SYMATTR Value K={1/(2*pi*100)}
SYMBOL EIT_Digital\\schmitt-trigger-single 704 128 R0
SYMATTR InstName U8
SYMATTR Value2 VT=0V
SYMATTR SpiceLine VH=0.005V
SYMBOL source-V 832 288 R0
SYMATTR InstName V2
SYMATTR Value 1V
TEXT 48 -80 Left 2 ;tau1=1/(2*pi*100)s=1,59ms
TEXT 48 -48 Left 2 ;tau2=2*d/omegar=0,955ms
TEXT 64 -120 Left 2 ;fr=100Hz, d=0,3
TEXT 376 -112 Left 2 ;R1 vorgegeben=10kOhm
TEXT 376 -72 Left 2 ;C1=tau1/R1=159nF
TEXT 368 -40 Left 2 ;R2=tau2/C1=6k
TEXT -144 -32 Left 2 !.tran 0 50m 0 uic
TEXT 40 8 Left 2 ;tau2=2*0,5/omegar=1,59msms
TEXT 368 8 Left 2 ;R2=tau2/C1=10k
TEXT 664 48 Left 2 !.param vpwr$_digital=2V
TEXT -312 304 Left 2 ;grundwelle rechteck um 4/pi größer als cos signal
TEXT -320 360 Left 2 !.param c2=10n
