Version 4
SHEET 1 1032 1224
WIRE -144 416 -208 416
WIRE -112 416 -144 416
WIRE 656 416 656 400
WIRE 448 448 416 448
WIRE -304 528 -304 416
WIRE -304 528 -384 528
WIRE -256 528 -304 528
WIRE -224 528 -256 528
WIRE -96 528 -128 528
WIRE -80 528 -96 528
WIRE 224 528 208 528
WIRE 240 528 224 528
WIRE 336 528 320 528
WIRE 352 528 352 448
WIRE 352 528 336 528
WIRE 448 528 448 448
WIRE 448 528 432 528
WIRE 528 528 512 528
WIRE 560 528 528 528
WIRE 592 528 560 528
WIRE 768 528 720 528
WIRE -304 576 -304 528
WIRE 528 608 528 528
WIRE 528 608 464 608
WIRE 384 624 352 624
WIRE 336 672 336 528
WIRE 384 672 336 672
WIRE -304 688 -304 656
WIRE -96 688 -96 528
WIRE -16 688 -96 688
WIRE 144 688 80 688
WIRE 192 688 144 688
WIRE 464 704 464 688
WIRE 720 704 672 704
WIRE 752 704 720 704
WIRE 352 720 352 624
WIRE -176 768 -176 576
WIRE 576 768 576 704
WIRE 576 768 -176 768
WIRE 768 768 768 528
WIRE 768 768 576 768
WIRE 656 864 656 848
WIRE 448 896 416 896
WIRE -384 976 -384 528
WIRE -256 976 -384 976
WIRE -224 976 -256 976
WIRE -96 976 -128 976
WIRE -80 976 -96 976
WIRE 224 976 208 976
WIRE 240 976 224 976
WIRE 336 976 320 976
WIRE 352 976 352 896
WIRE 352 976 336 976
WIRE 448 976 448 896
WIRE 448 976 432 976
WIRE 528 976 512 976
WIRE 560 976 528 976
WIRE 592 976 560 976
WIRE 768 976 720 976
WIRE 528 1056 528 976
WIRE 528 1056 464 1056
WIRE 384 1072 352 1072
WIRE 336 1120 336 976
WIRE 384 1120 336 1120
WIRE -96 1136 -96 976
WIRE -16 1136 -96 1136
WIRE 144 1136 80 1136
WIRE 192 1136 144 1136
WIRE 464 1152 464 1136
WIRE 720 1152 672 1152
WIRE 752 1152 720 1152
WIRE 352 1168 352 1072
WIRE -176 1216 -176 1024
WIRE 576 1216 576 1152
WIRE 576 1216 -176 1216
WIRE 768 1216 768 976
WIRE 768 1216 576 1216
FLAG 464 704 0
FLAG 352 720 0
FLAG 224 528 db
FLAG 560 528 fb
FLAG 768 528 phi2
FLAG -96 528 phie
FLAG -304 688 0
FLAG -256 528 phi1
FLAG 144 688 omegae
FLAG -144 416 f1
FLAG 720 704 f2
FLAG 656 416 0
FLAG 464 1152 0
FLAG 352 1168 0
FLAG 224 976 db2
FLAG 560 976 fb2
FLAG 768 976 phi22
FLAG -96 976 phie2
FLAG -256 976 phi1
FLAG 144 1136 omegae2
FLAG 720 1152 f22
SYMBOL res 224 544 R270
WINDOW 0 25 56 VTop 2
WINDOW 3 7 56 VBottom 2
SYMATTR InstName R3
SYMATTR Value 10k
SYMBOL res 336 544 R270
WINDOW 0 25 56 VTop 2
WINDOW 3 7 56 VBottom 2
SYMATTR InstName R4
SYMATTR Value 5k
SYMBOL cap 448 544 R270
WINDOW 0 32 32 VTop 2
WINDOW 3 0 32 VBottom 2
SYMATTR InstName C3
SYMATTR Value 159n
SYMBOL crtl-V-V 464 592 R0
SYMATTR InstName E2
SYMATTR Value 10000
SYMBOL cap 352 464 R270
WINDOW 0 32 32 VTop 2
WINDOW 3 0 32 VBottom 2
SYMATTR InstName C4
SYMATTR Value 10f
SYMBOL EIT_PLL\\integrator 656 528 R0
SYMATTR Value KI={-2*pi*100}
SYMATTR InstName U4
SYMBOL EIT_PLL\\PD_MULT_laplace 64 528 R0
SYMATTR Value A=1
SYMATTR InstName U5
SYMBOL EIT_PLL\\Subtraction -176 528 R0
SYMATTR InstName U6
SYMBOL source-V -304 560 R0
WINDOW 3 -66 165 Left 2
WINDOW 123 0 0 Left 2
WINDOW 39 0 0 Left 2
SYMATTR Value PULSE(0 {2*pi*2k} 10m 1)
SYMATTR InstName V1
SYMBOL EIT_PLL\\phase_to_frequency 48 688 R0
SYMATTR InstName U7
SYMATTR Value K={1/(2*pi*100)}
SYMBOL EIT_PLL\\phase_to_frequency -240 416 R0
SYMATTR InstName U1
SYMATTR Value K={1/(2*pi)}
SYMBOL EIT_PLL\\phase_to_frequency 640 704 R0
SYMATTR InstName U2
SYMATTR Value K={1/(2*pi)}
SYMBOL source-V 656 304 R0
WINDOW 123 0 0 Left 2
WINDOW 39 0 0 Left 2
SYMATTR InstName V2
SYMATTR Value SINE(0 1 100k)
SYMBOL res 224 992 R270
WINDOW 0 25 56 VTop 2
WINDOW 3 7 56 VBottom 2
SYMATTR InstName R1
SYMATTR Value 10k
SYMBOL res 336 992 R270
WINDOW 0 25 56 VTop 2
WINDOW 3 7 56 VBottom 2
SYMATTR InstName R2
SYMATTR Value 5k
SYMBOL cap 448 992 R270
WINDOW 0 32 32 VTop 2
WINDOW 3 0 32 VBottom 2
SYMATTR InstName C1
SYMATTR Value 159n
SYMBOL crtl-V-V 464 1040 R0
SYMATTR InstName E1
SYMATTR Value 10000
SYMBOL cap 352 912 R270
WINDOW 0 32 32 VTop 2
WINDOW 3 0 32 VBottom 2
SYMATTR InstName C2
SYMATTR Value 10f
SYMBOL EIT_PLL\\integrator 656 976 R0
SYMATTR Value KI={-2*pi*100}
SYMATTR InstName U3
SYMBOL EIT_PLL\\Subtraction -176 976 R0
SYMATTR InstName U9
SYMBOL EIT_PLL\\phase_to_frequency 48 1136 R0
SYMATTR InstName U10
SYMATTR Value K={1/(2*pi*100)}
SYMBOL EIT_PLL\\phase_to_frequency 640 1152 R0
SYMATTR InstName U12
SYMATTR Value K={1/(2*pi)}
SYMBOL EIT_PLL\\PD_PFD_laplace 64 976 R0
SYMATTR Value A={2*pi}
SYMATTR InstName U8
TEXT 56 288 Left 2 ;tau1=1/(2*pi*100)s=1,59ms
TEXT 56 320 Left 2 ;tau2=2*d/omegar=0,955ms
TEXT 72 248 Left 2 ;fr=100Hz, d=0,3
TEXT 384 256 Left 2 ;R1 vorgegeben=10kOhm
TEXT 384 296 Left 2 ;C1=tau1/R1=159nF
TEXT 376 328 Left 2 ;R2=tau2/C1=6k
TEXT -280 344 Left 2 !.tran 0 70m 10m 100u uic
TEXT 48 376 Left 2 ;tau2=2*0,5/omegar=1,59msms
TEXT 376 376 Left 2 ;R2=tau2/C1=10k
