Version 4
SHEET 1 880 680
WIRE -144 160 -208 160
WIRE -96 160 -144 160
WIRE 16 160 0 160
WIRE 32 160 16 160
WIRE 48 160 32 160
WIRE 400 160 336 160
WIRE 464 160 400 160
WIRE 608 160 592 160
WIRE -208 224 -208 160
WIRE 400 240 336 240
WIRE 416 240 400 240
WIRE 336 256 336 240
WIRE 32 320 32 160
WIRE 96 320 32 320
WIRE 240 320 192 320
WIRE 272 320 240 320
WIRE -208 336 -208 304
WIRE -80 352 -128 352
WIRE 336 352 336 336
WIRE -128 384 -128 352
WIRE -48 384 -48 208
WIRE 512 384 -48 384
WIRE 608 384 608 160
WIRE 608 384 512 384
WIRE -128 480 -128 464
FLAG 16 160 phie
FLAG 240 320 xxx
FLAG 400 160 f
FLAG 512 384 phi2
FLAG -144 160 phi1
FLAG -208 336 0
FLAG 336 352 0
FLAG 400 240 omegae-norm
FLAG -128 480 0
SYMBOL EIT_PLL\\PD_MULT_laplace 192 160 R0
SYMATTR Value A=1
SYMATTR InstName U1
SYMBOL EIT_PLL\\Subtraction -48 160 R0
SYMATTR InstName U2
SYMBOL EIT_PLL\\integrator 528 160 R0
SYMATTR Value KI={2*pi*100}
SYMATTR InstName U3
SYMBOL EIT_PLL\\phase_to_frequency 160 320 R0
SYMATTR InstName U4
SYMATTR Value K={1/(100*2*pi)}
SYMBOL source-V -208 208 R0
WINDOW 123 0 0 Left 2
WINDOW 39 0 0 Left 2
SYMATTR InstName V1
SYMATTR Value PULSE(0 {1.1*pi} 10m)
SYMBOL Function-V 336 240 R0
SYMATTR InstName B1
SYMATTR Value V=limit(v(xxx),-1, 1)
SYMBOL source-V -128 368 R0
WINDOW 123 0 0 Left 2
WINDOW 39 0 0 Left 2
SYMATTR InstName V2
SYMATTR Value SINE(0 1 1k)
TEXT -216 24 Left 2 !.tran 50m uic
