Version 4
SHEET 1 880 680
WIRE -96 -48 -176 -48
WIRE -176 -16 -176 -48
WIRE -288 0 -320 0
WIRE -256 0 -288 0
WIRE -256 48 -304 48
WIRE -304 64 -304 48
WIRE -176 80 -176 64
WIRE -304 176 -304 144
WIRE 80 192 0 192
WIRE 112 192 80 192
WIRE 224 192 208 192
WIRE 160 256 160 240
WIRE 160 352 160 336
WIRE 64 448 -16 448
WIRE 160 448 64 448
WIRE 240 480 224 480
WIRE 224 528 224 480
WIRE 224 528 160 528
FLAG 160 352 0
FLAG 80 192 f
FLAG 64 448 f
FLAG -176 80 0
FLAG -304 176 0
FLAG -288 0 f
SYMBOL EIT_PLL\\integrator 288 192 R0
SYMATTR InstName U1
SYMBOL EIT_PLL\\vco_real 352 -64 R0
SYMATTR Value2 V0=5
SYMATTR InstName U2
SYMBOL EIT_PLL\\Subtraction 160 192 R0
SYMATTR InstName U3
SYMBOL source-V 160 240 R0
WINDOW 123 0 0 Left 2
WINDOW 39 0 0 Left 2
SYMATTR InstName V1
SYMATTR Value 5
SYMBOL EIT_PLL\\integrator 304 480 R0
SYMATTR InstName U4
SYMBOL source-V 160 432 R0
WINDOW 123 0 0 Left 2
WINDOW 39 0 0 Left 2
SYMATTR InstName V2
SYMATTR Value 5
SYMBOL EIT_PLL\\integrator -32 -48 R0
SYMATTR InstName U5
SYMBOL crtl-V-V -176 -32 R0
SYMATTR InstName E1
SYMATTR Value 1
SYMBOL source-V -304 48 R0
SYMATTR InstName V3
SYMATTR Value 5V
