Version 4
SHEET 1 880 680
WIRE 160 128 80 128
WIRE 352 128 304 128
WIRE 448 128 448 -16
WIRE 448 128 352 128
WIRE 80 160 80 128
WIRE 352 192 304 192
WIRE 384 192 352 192
WIRE 80 256 80 240
WIRE 144 496 144 464
WIRE 416 512 416 480
WIRE 144 592 144 576
WIRE 416 608 416 592
FLAG 352 192 cos
FLAG 80 256 0
FLAG 352 128 x
FLAG 144 592 0
FLAG 416 608 0
SYMBOL SpecialFunctions\\modulate2 160 128 R0
WINDOW 3 -33 122 Left 2
SYMATTR Value space={Fmin} mark={Fmax}
SYMATTR InstName A1
SYMBOL voltage 80 144 R0
WINDOW 123 0 0 Left 2
WINDOW 39 0 0 Left 2
WINDOW 3 -53 152 Left 2
SYMATTR Value PULSE(0 1 0 {tb})
SYMATTR InstName V1
SYMBOL voltage 144 480 R0
WINDOW 123 0 0 Left 2
WINDOW 39 0 0 Left 2
WINDOW 3 -53 152 Left 2
SYMATTR Value SINE(0 1 1k)
SYMATTR InstName V2
SYMBOL voltage 416 496 R0
WINDOW 123 0 0 Left 2
WINDOW 39 0 0 Left 2
WINDOW 3 -53 152 Left 2
SYMATTR Value SINE(0 1 1k)
SYMATTR InstName V3
SYMBOL voltage 416 384 R0
WINDOW 123 0 0 Left 2
WINDOW 39 0 0 Left 2
WINDOW 3 85 124 Left 2
SYMATTR Value SINE(0 1 1k)
SYMATTR InstName V4
TEXT 160 -216 Left 2 !;.param Bw=5k\n;.param fc=10k\n.param Fmin=0\n.param Fmax=1k\n;.param F0={500k/(2*pi)}\n.param tb = 1
TEXT 160 -8 Left 2 !.tran 0 {tb} 0 {tb/1e-12}
TEXT 160 16 Left 2 !.options plotwinsize=0
