Version 4
SHEET 1 5096 680
WIRE 224 -544 208 -544
WIRE 240 -544 224 -544
WIRE 400 -544 384 -544
WIRE 416 -544 400 -544
WIRE 224 -496 208 -496
WIRE 240 -496 224 -496
WIRE 400 -496 384 -496
WIRE 416 -496 400 -496
WIRE -592 -384 -592 -400
WIRE -592 -352 -592 -384
WIRE -272 -320 -272 -352
WIRE -592 -256 -592 -272
WIRE -768 -208 -784 -208
WIRE -656 -208 -688 -208
WIRE 144 -208 16 -208
WIRE 336 -208 272 -208
WIRE 400 -208 336 -208
WIRE -336 -192 -416 -192
WIRE 16 -160 16 -208
WIRE 144 -160 144 -208
WIRE 272 -160 272 -208
WIRE 400 -160 400 -208
WIRE -416 -128 -416 -192
WIRE 16 -48 16 -80
WIRE 144 -48 144 -80
WIRE 272 -48 272 -80
WIRE 400 -48 400 -80
WIRE -592 -16 -592 -160
WIRE -416 -16 -416 -48
WIRE -272 0 -272 -144
FLAG -272 -352 0
FLAG -272 0 0
FLAG 16 -48 0
FLAG 144 -48 0
FLAG -592 -16 0
FLAG -784 -208 0
FLAG -592 -384 V+
FLAG 224 -544 V+
FLAG 224 -496 V-
FLAG 400 -544 +5V+
FLAG 400 -496 -5V
FLAG 272 -48 0
FLAG 400 -48 0
FLAG 336 -208 VT
FLAG -336 -192 bas
FLAG -416 -16 0
SYMBOL EIT_Semiconductors\\npn -336 -240 R0
SYMATTR InstName Q1
SYMATTR Value NPNx
SYMBOL source-I -272 -240 R180
WINDOW 0 29 73 Left 2
WINDOW 3 29 17 Left 2
WINDOW 123 0 0 Left 2
WINDOW 39 0 0 Left 2
SYMATTR InstName I1
SYMATTR Value {I0}
SYMBOL source-I 16 -160 M0
WINDOW 0 29 73 Left 2
WINDOW 3 -77 153 Left 2
WINDOW 123 0 0 Left 2
WINDOW 39 0 0 Left 2
SYMATTR InstName Iss1
SYMATTR Value {I0/exp(Ueb/VT)}
SYMBOL res 128 -176 R0
SYMATTR InstName s
SYMATTR Value 1
SYMBOL EIT_Semiconductors\\npn -656 -256 R0
SYMATTR InstName Q2
SYMATTR Value NPNx
SYMBOL source-I -688 -208 R90
WINDOW 0 -54 35 VRight 2
WINDOW 3 59 17 VRight 2
WINDOW 123 0 0 Left 2
WINDOW 39 0 0 Left 2
SYMATTR InstName I2
SYMATTR Value 5µ
SYMBOL res -608 -368 R0
SYMATTR InstName R3
SYMATTR Value 1µ
SYMBOL source-Vmarker 208 -544 R0
SYMATTR InstName U1
SYMBOL source-Vmarker 208 -496 R0
SYMATTR Value V=-5V
SYMATTR InstName U2
SYMBOL source-Vmarker 384 -544 R0
SYMATTR InstName U3
SYMBOL source-Vmarker 384 -496 R0
SYMATTR Value V=-5V
SYMATTR InstName U4
SYMBOL source-I 272 -160 M0
WINDOW 0 29 73 Left 2
WINDOW 3 -77 153 Left 2
WINDOW 123 0 0 Left 2
WINDOW 39 0 0 Left 2
SYMATTR InstName VT
SYMATTR Value {VT}
SYMBOL res 384 -176 R0
SYMATTR InstName R4
SYMATTR Value 1
SYMBOL source-V -416 -144 R0
SYMATTR InstName V1
TEXT -480 -464 Left 2 !.step param TEMP 18 100 1
TEXT -656 -544 Left 2 !.model NPNx NPN (Is={I0/exp(Ube/VT)} Bf = {beta})\n.model PNPx PNP (Is={I0/exp(Ueb/VT)} Bf = {beta})
TEXT -944 -568 Left 2 !.param I0 = 1mA\n.param Ube = 0.65V\n.param Ueb = 0.6V\n;;;; .param VT = 26mV\n.param beta = 350
TEXT -946 24 Left 2 !.op
TEXT -944 -664 Left 2 ;.model PNPx PNP(IS=3.83E-14 NF=1.008 ISE=1.22E-14 NE=1.528 BF=344.4 IKF=0.08039 VAF=21.11 NR=1.005 ISC=2.85E-13 NC=1.28 BR=14.84 IKR=0.047 VAR=32.02 RB=1 IRB=1.00E-06 RBM=1 RE=0.6202 RC=0.5713 XTB=0 EG=1.11 XTI=3 CJE=1.23E-11 VJE=0.6106 MJE=0.378 TF=5.60E-10 XTF=3.414 VTF=5.23 ITF=0.1483 PTF=0 CJC=1.08E-11 VJC=0.1022 MJC=0.3563 XCJC=0.6288 TR=1.00E-32 CJS=0 VJS=0.75 MJS=0.333 FC=0.8027 Vceo=45 Icrating=100m mfg=Philips)\n.model NPNx NPN(IS=2.39E-14 NF=1.008 ISE=3.545E-15 NE=1.541 BF=294.3 IKF=0.1357 VAF=63.2 NR=1.004 ISC=6.272E-14 NC=1.243 BR=7.946 IKR=0.1144 VAR=25.9 RB=1 IRB=1.00E-06 RBM=1 RE=0.4683 RC=0.85 XTB=0 EG=1.11 XTI=3 CJE=1.358E-11 VJE=0.65 MJE=0.3279 TF=4.391E-10 XTF=120 VTF=2.643 ITF=0.7495 PTF=0 CJC=3.728E-12 VJC=0.3997 MJC=0.2955 XCJC=0.6193 TR=1.00E-32 CJS=0 VJS=0.75 MJS=0.333 FC=0.9579 Vceo=45 Icrating=100m mfg=Philips)
TEXT -16 -432 Left 2 !.param boltz = 1.38e-23\n.param Theta = {273+TEMP}\n.param eq = 1.602e-19As\n.param VT={boltz*Theta/eq}
TEXT -8 -304 Left 2 ;Ic=Is*exp(Ube/VT)
