Version 4
SHEET 1 1264 680
WIRE -16 -400 -16 -416
WIRE -384 -336 -800 -336
WIRE -224 -336 -336 -336
WIRE -128 -336 -224 -336
WIRE 176 -336 96 -336
WIRE -1024 -320 -1024 -336
WIRE -928 -320 -928 -336
WIRE -800 -320 -800 -336
WIRE -384 -320 -384 -336
WIRE -336 -320 -336 -336
WIRE -224 -320 -224 -336
WIRE 176 -320 176 -336
WIRE -128 -240 -144 -240
WIRE 112 -240 96 -240
WIRE 176 -240 176 -256
WIRE -1024 -224 -1024 -240
WIRE -928 -224 -928 -240
WIRE -800 -224 -800 -240
WIRE -384 -224 -384 -240
WIRE -336 -224 -336 -240
WIRE -224 -224 -224 -240
WIRE -64 -160 -64 -176
WIRE 32 -160 32 -176
FLAG -1024 -224 0
FLAG -1024 -336 +V
FLAG -16 -416 +V
FLAG 32 -160 0
FLAG 112 -240 0
FLAG 176 -336 OUT
FLAG -928 -224 0
FLAG -928 -336 -V
FLAG 176 -240 0
FLAG -336 -224 0
FLAG -384 -224 0
FLAG -144 -240 0
FLAG -224 -224 0
FLAG -64 -160 -V
FLAG -800 -224 0
FLAG -800 -336 IN
SYMBOL voltage -1024 -336 R0
WINDOW 123 0 0 Left 2
WINDOW 39 0 0 Left 2
SYMATTR InstName V1
SYMATTR Value 5
SYMBOL LTC1966 -16 -288 R0
SYMATTR InstName U1
SYMBOL voltage -928 -336 R0
SYMATTR InstName V2
SYMATTR Value -5
SYMBOL cap 160 -320 R0
SYMATTR InstName C1
SYMATTR Value 1µ
SYMBOL ind2 -400 -224 M180
WINDOW 0 -5 74 Right 2
WINDOW 3 -2 44 Right 2
WINDOW 123 -7 14 Right 2
SYMATTR InstName L1
SYMATTR Value 20n
SYMATTR Type ind
SYMBOL ind2 -320 -224 R180
WINDOW 0 1 70 Right 2
WINDOW 3 2 41 Right 2
SYMATTR InstName L2
SYMATTR Value 118m
SYMATTR Type ind
SYMBOL res -240 -336 R0
SYMATTR InstName R1
SYMATTR Value 10
SYMBOL current -800 -240 M180
WINDOW 0 24 80 Left 2
WINDOW 3 24 0 Left 2
WINDOW 123 24 -42 Left 2
WINDOW 39 24 -21 Left 2
SYMATTR InstName I1
SYMATTR Value SINE(0 {ARMS*sqrt(2)} 60)
TEXT 120 -184 Left 2 !.tran 3
TEXT -360 -336 Bottom 2 !K1 L1 L2 1
TEXT 120 -152 Left 2 !.step param ARMS list 5 10 70
TEXT -1008 -136 Left 2 ;Note:\n  If the simulation model is not found please update with the "Sync Release" command from the "Tools" menu.\n  It remains the customer's responsibility to verify proper and reliable operation in the actual application.\n  Component substitution and printed circuit board layout may significantly affect circuit performance or reliability.\n  Contact your local sales representative for assistance. This circuit is distributed to customers only for use with LTC parts.\n  Copyright © 2015 Linear Technology Inc. All rights reserved.
TEXT -360 -464 Bottom 2 ;LTC1966 - Precision µPower, Delta Sigma RMS-to-DC Converter\nAC Current Measurement\nInput: 50Hz to 400Hz AC Current, 75A Max     Output: 4mVdc/Arms
