Version 4
SHEET 1 892 748
WIRE -704 -528 -752 -528
WIRE -640 -528 -704 -528
WIRE -512 -528 -560 -528
WIRE -432 -528 -512 -528
WIRE -272 -528 -352 -528
WIRE -704 -464 -704 -528
WIRE -400 -416 -400 -448
WIRE -512 -368 -512 -528
WIRE -432 -368 -512 -368
WIRE -272 -336 -272 -528
WIRE -272 -336 -288 -336
WIRE -240 -336 -272 -336
WIRE -704 -304 -704 -384
WIRE -704 -304 -1120 -304
WIRE -640 -304 -704 -304
WIRE -512 -304 -560 -304
WIRE -432 -304 -512 -304
WIRE -1232 -288 -1232 -304
WIRE -1120 -288 -1120 -304
WIRE -512 -240 -512 -304
WIRE -352 -240 -352 -256
WIRE -400 -224 -400 -256
WIRE -1232 -192 -1232 -208
WIRE -1120 -192 -1120 -208
WIRE -512 -128 -512 -160
FLAG -1232 -192 0
FLAG -400 -448 +V
FLAG -1232 -304 +V
FLAG -352 -240 +V
FLAG -400 -224 0
FLAG -1120 -192 0
FLAG -752 -528 0
FLAG -512 -128 +V
FLAG -240 -336 OUT
FLAG -1120 -304 IN
SYMBOL res -720 -368 M180
WINDOW 0 36 76 Left 2
WINDOW 3 36 40 Left 2
SYMATTR InstName R1
SYMATTR Value 50m
SYMBOL voltage -1232 -304 R0
WINDOW 123 0 0 Left 2
WINDOW 39 0 0 Left 2
SYMATTR InstName V1
SYMATTR Value 5V
SYMBOL res -336 -512 M270
WINDOW 0 32 56 VTop 2
WINDOW 3 0 56 VBottom 2
SYMATTR InstName R5
SYMATTR Value 4K
SYMBOL res -544 -512 M270
WINDOW 0 32 56 VTop 2
WINDOW 3 0 56 VBottom 2
SYMATTR InstName R6
SYMATTR Value 1K
SYMBOL res -656 -320 M90
WINDOW 0 0 56 VBottom 2
WINDOW 3 32 56 VTop 2
SYMATTR InstName R2
SYMATTR Value 1K
SYMBOL voltage -1120 -304 R0
WINDOW 123 24 138 Left 2
WINDOW 39 24 117 Left 2
SYMATTR InstName V2
SYMATTR Value PWL(2m 1 4m 0 6m 1 8m 0)
SYMBOL res -528 -144 M180
WINDOW 0 36 76 Left 2
WINDOW 3 36 40 Left 2
SYMATTR InstName R3
SYMATTR Value 499K
SYMBOL LTC2050 -400 -336 R0
SYMATTR InstName U1
TEXT -1408 -96 Left 2 ;Note:\n  If the simulation model is not found please update with the "Sync Release" command from the "Tools" menu.\n  It remains the customer's responsibility to verify proper and reliable operation in the actual application.\n  Component substitution and printed circuit board layout may significantly affect circuit performance or reliability.\n  Contact your local sales representative for assistance. This circuit is distributed to customers only for use with LTC parts.\n  Copyright © 2014 Linear Technology Inc. All rights reserved.
TEXT -696 -600 Bottom 2 ;LTC2050 - Zero-Drift Operational Amplifiers\nLow Side Current Sense Amplifier\nLoad Current:  0.5A to 19.5A     Output Gain: 250mV/A, 50mV Offset added
TEXT -272 -152 Left 2 !.tran 10m
