Version 4
SHEET 1 892 692
WIRE -656 -176 -688 -176
WIRE -592 -176 -656 -176
WIRE -464 -176 -512 -176
WIRE -400 -176 -464 -176
WIRE -288 -176 -320 -176
WIRE -656 -112 -656 -176
WIRE -416 -96 -416 -112
WIRE -464 -48 -464 -176
WIRE -448 -48 -464 -48
WIRE -288 -16 -288 -176
WIRE -288 -16 -304 -16
WIRE -240 -16 -288 -16
WIRE -864 16 -976 16
WIRE -656 16 -656 -32
WIRE -656 16 -784 16
WIRE -592 16 -656 16
WIRE -448 16 -512 16
WIRE -1200 48 -1200 32
WIRE -1088 48 -1088 32
WIRE -976 48 -976 16
WIRE -416 80 -416 64
WIRE -368 80 -368 64
WIRE -1200 144 -1200 128
WIRE -1088 144 -1088 128
WIRE -976 144 -976 128
FLAG -1088 144 0
FLAG -416 -112 +V
FLAG -1088 32 +V
FLAG -368 80 +V
FLAG -976 144 0
FLAG -688 -176 0
FLAG -1200 144 0
FLAG -1200 32 -V
FLAG -416 80 -V
FLAG -240 -16 OUT
FLAG -976 16 IN
SYMBOL res -672 -16 M180
WINDOW 0 36 76 Left 2
WINDOW 3 36 40 Left 2
SYMATTR InstName R1
SYMATTR Value 50m
SYMBOL voltage -1088 32 R0
WINDOW 123 0 0 Left 2
WINDOW 39 0 0 Left 2
SYMATTR InstName V1
SYMATTR Value 5V
SYMBOL res -304 -160 M270
WINDOW 0 32 56 VTop 2
WINDOW 3 0 56 VBottom 2
SYMATTR InstName R2
SYMATTR Value 4K
SYMBOL res -496 -160 M270
WINDOW 0 32 56 VTop 2
WINDOW 3 0 56 VBottom 2
SYMATTR InstName R3
SYMATTR Value 1K
SYMBOL LTC2050HV -416 -16 R0
SYMATTR InstName U1
SYMBOL res -608 0 M90
WINDOW 0 0 56 VBottom 2
WINDOW 3 32 56 VTop 2
SYMATTR InstName R4
SYMATTR Value 1K
SYMBOL voltage -976 32 R0
WINDOW 123 24 138 Left 2
WINDOW 39 24 117 Left 2
SYMATTR Value SINE(0 20 200 1m)
SYMATTR InstName V2
SYMBOL voltage -1200 32 R0
WINDOW 123 0 0 Left 2
WINDOW 39 0 0 Left 2
SYMATTR InstName V3
SYMATTR Value -5V
SYMBOL res -880 32 R270
WINDOW 0 32 56 VTop 2
WINDOW 3 0 56 VBottom 2
SYMATTR InstName R5
SYMATTR Value 1
TEXT -1280 192 Left 2 ;Note:\n  If the simulation model is not found please update with the "Sync Release" command from the "Tools" menu.\n  It remains the customer's responsibility to verify proper and reliable operation in the actual application.\n  Component substitution and printed circuit board layout may significantly affect circuit performance or reliability.\n  Contact your local sales representative for assistance. This circuit is distributed to customers only for use with LTC parts.\n  Copyright © 2014 Linear Technology Inc. All rights reserved.
TEXT -688 -216 Bottom 2 ;LTC2050HV - Zero-Drift Operational Amplifiers\nLow Side, Bidirectional Current Sensing\nLoad Current:  -19.5A to 19.5A     Output Gain: 250mV/A
TEXT -240 96 Left 2 !.tran 20m
