Version 4
SHEET 1 892 692
WIRE -304 -240 -368 -240
WIRE -160 -240 -240 -240
WIRE -736 -144 -768 -144
WIRE -720 -144 -736 -144
WIRE -608 -144 -640 -144
WIRE -464 -144 -608 -144
WIRE -368 -144 -368 -240
WIRE -368 -144 -384 -144
WIRE -288 -144 -368 -144
WIRE -160 -144 -160 -240
WIRE -160 -144 -208 -144
WIRE -608 -112 -608 -144
WIRE -1072 -96 -1072 -112
WIRE -960 -96 -960 -112
WIRE -304 -80 -304 -96
WIRE -368 -32 -368 -144
WIRE -336 -32 -368 -32
WIRE -608 -16 -608 -32
WIRE -1072 0 -1072 -16
WIRE -960 0 -960 -16
WIRE -160 0 -160 -144
WIRE -160 0 -192 0
WIRE -128 0 -160 0
WIRE -736 32 -736 -144
WIRE -336 32 -736 32
WIRE -304 96 -304 80
WIRE -256 96 -256 80
FLAG -960 0 0
FLAG -304 -96 V+
FLAG -960 -112 V+
FLAG -256 96 V+
FLAG -1072 0 0
FLAG -1072 -112 V-
FLAG -304 96 V-
FLAG -608 -16 V-
FLAG -128 0 OUT
FLAG -768 -144 0
SYMBOL res -736 -160 M90
WINDOW 0 0 56 VBottom 2
WINDOW 3 32 56 VTop 2
SYMATTR InstName R1
SYMATTR Value 3m
SYMBOL voltage -960 -112 R0
WINDOW 123 0 0 Left 2
WINDOW 39 0 0 Left 2
SYMATTR InstName V1
SYMATTR Value 5
SYMBOL res -192 -128 M270
WINDOW 0 32 56 VTop 2
WINDOW 3 0 56 VBottom 2
SYMATTR InstName R5
SYMATTR Value 10K
SYMBOL LTC2050HV -304 0 R0
SYMATTR InstName U1
SYMBOL voltage -1072 -112 R0
WINDOW 123 0 0 Left 2
WINDOW 39 0 0 Left 2
SYMATTR InstName V2
SYMATTR Value -5
SYMBOL cap -240 -224 M270
WINDOW 0 32 32 VTop 2
WINDOW 3 0 32 VBottom 2
SYMATTR InstName C1
SYMATTR Value .1µ
SYMBOL res -368 -128 M270
WINDOW 0 32 56 VTop 2
WINDOW 3 0 56 VBottom 2
SYMATTR InstName R2
SYMATTR Value 10
SYMBOL load2 -608 -112 R0
WINDOW 123 0 0 Left 2
WINDOW 39 0 0 Left 2
SYMATTR InstName I1
SYMATTR Value SINE(0 1.5 5 1m)
TEXT -1176 144 Left 2 ;Note:\n  If the simulation model is not found please update with the "Sync Release" command from the "Tools" menu.\n  It remains the customer's responsibility to verify proper and reliable operation in the actual application.\n  Component substitution and printed circuit board layout may significantly affect circuit performance or reliability.\n  Contact your local sales representative for assistance. This circuit is distributed to customers only for use with LTC parts.\n  Copyright © 2014 Linear Technology Inc. All rights reserved.
TEXT -496 -288 Bottom 2 ;LTC2050HV - Zero-Drift Operational Amplifiers\nLow Side Current Sensing\nLoad Current:  -1.5A to 1.5A     Output Gain: 3V/A
TEXT -128 104 Left 2 !.tran 1
