Version 4
SHEET 1 1696 936
WIRE 160 -160 144 -160
WIRE 272 -96 240 -96
WIRE 272 -64 240 -64
WIRE 960 -48 928 -48
WIRE 880 48 624 48
WIRE 928 48 880 48
WIRE 1024 48 1008 48
WIRE 880 64 880 48
WIRE 96 80 64 80
WIRE 208 80 176 80
WIRE 208 96 208 80
WIRE 1024 96 1024 48
WIRE 1312 96 1280 96
WIRE 1456 96 1424 96
WIRE 1488 96 1456 96
WIRE 1632 96 1600 96
WIRE 1280 144 1280 96
WIRE 1456 144 1456 96
WIRE 64 160 64 80
WIRE 96 160 64 160
WIRE 1632 160 1632 96
WIRE 208 176 208 144
WIRE 240 176 208 176
WIRE 288 176 240 176
WIRE 624 176 624 48
WIRE 640 176 624 176
WIRE 768 176 752 176
WIRE 880 176 880 128
WIRE 896 176 880 176
WIRE 64 192 64 160
WIRE 96 192 64 192
WIRE 752 192 752 176
WIRE 880 192 880 176
WIRE 1024 192 1024 144
WIRE 1024 192 1008 192
WIRE 1056 192 1024 192
WIRE 624 208 624 176
WIRE 640 208 624 208
WIRE 752 208 752 192
WIRE 768 208 752 208
WIRE 880 208 880 192
WIRE 896 208 880 208
WIRE 64 240 64 192
WIRE 1280 240 1280 224
WIRE 1456 240 1456 224
WIRE 1456 240 1280 240
WIRE 1632 240 1632 224
WIRE 1632 240 1456 240
WIRE 64 320 64 304
FLAG 64 320 0
FLAG 272 -96 calc
FLAG 240 176 out
FLAG 64 160 in
FLAG 304 -160 0
FLAG 144 -160 0
FLAG 272 -64 R0
FLAG 1056 192 out1
FLAG 624 176 in1
FLAG 960 -48 R1
FLAG 896 176 c1
FLAG 1632 96 out2
FLAG 1280 96 in22
SYMBOL Dig_Add\\CD4xxx\\cd4093b 144 112 R0
SYMATTR InstName U1
SYMBOL res 80 96 R270
WINDOW 0 25 56 VTop 2
WINDOW 3 7 56 VBottom 2
SYMATTR InstName R1
SYMATTR Value {R0}
SYMBOL cap 48 240 R0
SYMATTR InstName C1
SYMATTR Value {C0}
SYMBOL MDB_sym\\source-Vmarker 240 -96 R0
SYMATTR Value V={1.8/(R0*C0)}
SYMATTR InstName U2
SYMBOL MDB_sym\\source-Imini 192 -160 R270
WINDOW 123 0 0 Left 2
WINDOW 39 0 0 Left 2
SYMATTR Value 1
SYMATTR InstName I1
SYMATTR Value2 ""
SYMBOL res 208 -144 R270
WINDOW 0 25 56 VTop 2
WINDOW 3 7 56 VBottom 2
SYMATTR InstName R2
SYMATTR Value 1
SYMBOL MDB_sym\\source-Vmarker 240 -64 R0
SYMATTR Value V={R0}
SYMATTR InstName U3
SYMBOL Dig_Add\\CD4xxx\\cd4011b 816 128 R0
SYMATTR InstName U5
SYMATTR SpiceLine VDD={VDD}  SPEED=1.0  TRIPDT=5e-9
SYMBOL res 1024 32 R90
WINDOW 0 7 56 VBottom 2
WINDOW 3 25 56 VTop 2
SYMATTR InstName R3
SYMATTR Value {R1}
SYMBOL MDB_sym\\source-Vmarker 928 -48 R0
SYMATTR Value V={R1}
SYMATTR InstName U7
SYMBOL cap 864 64 R0
SYMATTR InstName C2
SYMATTR Value {C1}
SYMBOL Dig_Add\\CD4xxx\\cd4011b 688 128 R0
SYMATTR InstName U4
SYMATTR SpiceLine VDD={VDD}  SPEED=1.0  TRIPDT=5e-9
SYMBOL Dig_Add\\CD4xxx\\cd4011b 944 128 R0
SYMATTR InstName U6
SYMATTR SpiceLine VDD={VDD}  SPEED=1.0  TRIPDT=5e-9
SYMBOL MDB_sym\\jumper 288 128 R90
SYMATTR InstName X1
SYMBOL MDB_sym\\jumper 1104 128 R90
SYMATTR InstName X2
SYMBOL res 1440 128 R0
SYMATTR InstName R4
SYMATTR Value {R22}
SYMBOL res 1264 128 R0
SYMATTR InstName R5
SYMATTR Value {R21}
SYMBOL cap 1616 160 R0
SYMATTR InstName C3
SYMATTR Value {C21}
SYMBOL Dig_Add\\74HC\\74hc04 1360 32 R0
SYMATTR InstName U8
SYMBOL Dig_Add\\74HC\\74hc04 1536 32 R0
SYMATTR InstName U9
SYMBOL MDB_sym\\negRes 1296 592 R0
SYMATTR InstName U10
SYMBOL diode 1520 496 R0
SYMATTR InstName D1
SYMBOL EIT_Semiconductors\\njf 1488 704 R0
SYMATTR InstName J1
SYMBOL EIT_Semiconductors\\pjf 1584 832 M0
SYMATTR InstName J2
TEXT 64 -24 Left 2 ;f0=1.8/(R*C)\n-----------------------
TEXT 48 376 Left 2 !.param Relaxationsoszillator=1\n+ C0 = .01n\n+ f0 = 50k\n+ R0 = 1.8/(C0 *f0)
TEXT 46 504 Left 2 !.tran .1m
TEXT 120 336 Left 2 ;.step param C0 list 1n .1n .01n
TEXT 240 416 Left 2 !.ic V(in) = 5V
TEXT 640 -56 Left 2 ;f0=0.6/(R*C)\n-----------------------
TEXT 608 360 Left 2 !.param Relaxationsoszillator1=1\n+ C1 = 1n\n+ f1 = 50k\n+ R1 = 0.6/(C1 *f1)
TEXT 832 400 Left 2 ;.step param f1 list 50k 100k 500k
TEXT 984 360 Left 2 !.ic V(in1,c1) = 15V
TEXT 928 424 Left 2 !.param VDD=12V
TEXT 1288 320 Left 2 !.param CMOS3=1\n+ R21 = {R22}\n+ R22 = 10k ;{0.559/(f02*C21)}\n+ C21 = 500p\n+ f02 = 500k
