Version 4
SHEET 1 1380 1172
WIRE -16 -576 -64 -576
WIRE 32 -576 -16 -576
WIRE -16 -528 -16 -576
WIRE -400 -512 -416 -512
WIRE -416 -416 -416 -512
WIRE -416 -416 -448 -416
WIRE -368 -416 -416 -416
WIRE -176 -416 -176 -512
WIRE -176 -416 -304 -416
WIRE -144 -416 -176 -416
WIRE -16 -416 -16 -448
WIRE -16 -416 -80 -416
WIRE 48 -416 -16 -416
WIRE 128 -416 112 -416
WIRE 160 -416 128 -416
WIRE 208 -416 160 -416
WIRE -16 -400 -16 -416
WIRE 128 -352 128 -416
WIRE -448 -336 -448 -416
WIRE -192 -336 -448 -336
WIRE -96 -336 -192 -336
WIRE -64 -336 -96 -336
WIRE 976 -320 880 -320
WIRE 1168 -320 1056 -320
WIRE -96 -304 -96 -336
WIRE -192 -288 -192 -336
WIRE -192 -208 -192 -224
WIRE -96 -208 -96 -224
WIRE -16 -208 -16 -304
WIRE 128 -208 128 -272
WIRE 1040 -192 992 -192
WIRE 1120 -192 1040 -192
WIRE 1040 -144 1040 -192
WIRE 992 -128 928 -128
WIRE 880 -32 880 -320
WIRE 880 -32 832 -32
WIRE 928 -32 928 -128
WIRE 928 -32 880 -32
WIRE 1040 -32 1040 -48
WIRE 1168 -32 1168 -320
WIRE 1168 -32 1040 -32
WIRE 1216 -32 1168 -32
WIRE 1040 -16 1040 -32
WIRE 32 32 -48 32
WIRE 192 32 112 32
WIRE 400 32 400 16
WIRE 928 64 928 -32
WIRE 992 64 928 64
WIRE -48 128 -48 32
WIRE 16 128 -48 128
WIRE 192 128 192 32
WIRE 192 128 128 128
WIRE 224 128 192 128
WIRE 400 128 400 112
WIRE 400 128 336 128
WIRE 448 128 400 128
WIRE 1040 160 1040 80
WIRE 1040 160 992 160
WIRE 1104 160 1040 160
WIRE 192 288 192 240
WIRE -128 384 -144 384
WIRE -48 384 -48 240
WIRE -48 384 -64 384
WIRE 192 384 192 368
WIRE 208 384 192 384
WIRE 288 384 272 384
WIRE 192 432 192 384
WIRE -48 496 -48 384
WIRE 32 496 -48 496
WIRE 192 496 192 464
WIRE 192 496 96 496
WIRE 1056 496 1056 480
WIRE 1088 496 1056 496
WIRE 1280 496 1200 496
WIRE 1280 528 1280 496
WIRE 1056 560 1056 496
WIRE -48 656 -48 496
WIRE 80 656 -48 656
WIRE 192 656 192 496
WIRE 192 656 144 656
WIRE 1056 656 1056 640
WIRE 1280 672 1280 608
WIRE -48 752 -48 656
WIRE 192 752 192 656
WIRE 192 752 176 752
FLAG -144 384 0
FLAG 288 384 0
FLAG 400 16 0
FLAG 448 128 µC_CLK
IOPIN 448 128 Out
FLAG -48 240 OSC1
FLAG 192 240 OSC2
FLAG -192 -208 0
FLAG -96 -208 0
FLAG -16 -208 0
FLAG 128 -208 0
FLAG 160 -416 anOsc
FLAG 480 448 0
FLAG 1056 656 0
FLAG 1280 672 0
FLAG 1056 496 stim
FLAG 832 -32 OSC1
FLAG 1216 -32 OSC2
SYMBOL Dig_Add\\CD4xxx\\cd40106b 272 80 R0
SYMATTR InstName U1
SYMBOL res 16 48 R270
WINDOW 0 25 56 VTop 2
WINDOW 3 7 56 VBottom 2
SYMATTR InstName R1
SYMATTR Value 1e6
SYMBOL res 176 272 R0
WINDOW 0 36 49 Left 2
WINDOW 3 -48 50 Left 2
SYMATTR InstName R2
SYMATTR Value {Rop}
SYMBOL res 416 128 R180
WINDOW 0 36 76 Left 2
WINDOW 3 36 40 Left 2
SYMATTR InstName R3
SYMATTR Value 100k
SYMBOL res 48 736 R90
WINDOW 0 7 56 VBottom 2
WINDOW 3 25 56 VTop 2
SYMATTR InstName R4
SYMATTR Value {Rs}
SYMBOL cap 96 736 R90
WINDOW 0 0 32 VBottom 2
WINDOW 3 32 32 VTop 2
WINDOW 39 61 27 VTop 2
SYMATTR InstName CS
SYMATTR Value {CS}
SYMATTR SpiceLine Rser=1 Rpar=1meg
SYMBOL cap 144 640 R90
WINDOW 0 0 32 VBottom 2
WINDOW 3 32 32 VTop 2
WINDOW 39 13 -164 VTop 2
SYMATTR InstName CP
SYMATTR Value {CP}
SYMATTR SpiceLine Rser=1 Rpar=10meg
SYMBOL ind 192 736 R90
WINDOW 0 5 56 VBottom 2
WINDOW 3 32 56 VTop 2
SYMATTR InstName L1
SYMATTR Value {Ls}
SYMBOL EIT_Semiconductors\\njf -64 -400 R0
SYMATTR InstName J1
SYMBOL ind 0 -544 M0
SYMATTR InstName L2
SYMATTR Value 1000n
SYMBOL res -112 -320 R0
SYMATTR InstName R5
SYMATTR Value 300k
SYMBOL cap 48 -432 M90
WINDOW 0 0 32 VBottom 2
WINDOW 3 32 32 VTop 2
SYMATTR InstName C3
SYMATTR Value 1µ
SYMBOL cap -80 -432 R90
WINDOW 0 0 32 VBottom 2
WINDOW 3 32 32 VTop 2
SYMATTR InstName C4
SYMATTR Value 100p
SYMBOL cap -208 -224 M180
WINDOW 0 24 64 Left 2
WINDOW 3 -78 13 Left 2
SYMATTR InstName C5
SYMATTR Value {p*100p}
SYMBOL res -272 -496 R270
WINDOW 0 25 56 VTop 2
WINDOW 3 7 56 VBottom 2
SYMATTR InstName R6
SYMATTR Value {Rs}
SYMBOL cap -320 -496 R270
WINDOW 0 32 32 VTop 2
WINDOW 3 0 32 VBottom 2
SYMATTR InstName CS1
SYMATTR Value {CS}
SYMBOL cap -368 -400 R270
WINDOW 0 32 32 VTop 2
WINDOW 3 0 32 VBottom 2
SYMATTR InstName CP1
SYMATTR Value {CP}
SYMBOL ind -416 -496 R270
WINDOW 0 32 56 VTop 2
WINDOW 3 5 56 VBottom 2
SYMATTR InstName L3
SYMATTR Value {Ls}
SYMBOL res 112 -368 R0
SYMATTR InstName R7
SYMATTR Value 220k
SYMBOL MDB_sym\\source-Vmarker 32 -576 M0
SYMATTR InstName U3
SYMATTR Value V=0 ;5V
SYMBOL MDB_sym\\arrow_curr 192 448 R0
SYMATTR InstName R8
SYMBOL Dig_Add\\CD4xxx\\cd4049b 64 64 R0
SYMATTR InstName U4
SYMATTR SpiceLine VDD=5  SPEED=1  TRIPDT=5e-9
SYMBOL SBORKA\\QUARTZ_CRYSTAL\\CRYSTAL_9_OVERTONE 480 432 R90
WINDOW 39 78 -323 VRight 2
SYMATTR InstName U2
SYMBOL res -144 400 R270
WINDOW 0 25 56 VTop 2
WINDOW 3 7 56 VBottom 2
SYMATTR InstName R9
SYMATTR Value 500k
SYMBOL res 192 400 R270
WINDOW 0 25 56 VTop 2
WINDOW 3 7 56 VBottom 2
SYMATTR InstName R10
SYMATTR Value 500k
SYMBOL EIT_Semiconductors\\nmos 992 -16 R0
SYMATTR InstName M1
SYMBOL EIT_Semiconductors\\pmos 992 -48 M180
SYMATTR InstName M2
SYMBOL MDB_sym\\source-Vmarker 992 -192 R0
SYMATTR InstName U5
SYMATTR Value V={VDD}
SYMBOL MDB_sym\\source-Vmarker 992 160 R0
SYMATTR InstName U6
SYMATTR Value V={VSS}
SYMBOL res 960 -304 R270
WINDOW 0 25 56 VTop 2
WINDOW 3 7 56 VBottom 2
SYMATTR InstName R11
SYMATTR Value 1e6
SYMBOL Dig_Add\\CD4xxx\\cd4049b 1136 432 R0
SYMATTR InstName U7
SYMATTR SpiceLine VDD=5  SPEED=1  TRIPDT=5e-9
SYMBOL MDB_sym\\source-V 1056 544 R0
WINDOW 123 0 0 Left 2
WINDOW 39 0 0 Left 2
SYMATTR InstName V1
SYMATTR Value PULSE(0 5 0 10n 10n 10u 20u)
SYMBOL res 1296 624 R180
WINDOW 0 36 76 Left 2
WINDOW 3 36 40 Left 2
SYMATTR InstName R12
SYMATTR Value 100k
TEXT -304 -784 Left 2 ;http://www.electronics-tutorials.ws/oscillator/crystal.html
TEXT 64 -56 Left 2 ;CMOS Crystal Oscillator
TEXT -80 840 Left 2 ;Quartz Crystal Equivalent Model
TEXT 648 576 Left 2 !.param mod=1\n+ Rop = 470\n+ CL = 10pF\n \n+ Rs = 6.4\n+ Cs = 99.7fF\n+ Ls = 2.546mH\n+ Cp = 28pF\n;----------------\n+ f0 = 10meg
TEXT -432 768 Left 2 !.tran 40u
TEXT -272 664 Left 2 !.ic I(L1)=0uA\n.ic V(Cp)=0V\n.ic V(Cs)=0V
TEXT -152 -600 Right 2 ;Quartz Crystal Equivalent Model
TEXT -424 -208 Left 2 !.param p = .5
TEXT -496 600 Left 2 !.options plotwinsize = 0
TEXT -432 -136 Left 2 ;.step param p .01 10 .5
TEXT -432 360 Left 2 ;.step param Rop list  470 470u
TEXT 920 264 Left 2 !.param power=1\n+ VDD = 5V\n+ VSS = 0V ;{-VDD}
LINE Normal -160 224 -160 -64 2
LINE Normal 560 224 -160 224 2
RECTANGLE Normal 224 816 -80 592 2
RECTANGLE Normal -432 -576 -160 -352 2
RECTANGLE Normal 592 896 -560 -864 2
