Version 4
SHEET 1 880 680
WIRE -1376 -304 -1424 -304
WIRE -1216 -304 -1312 -304
WIRE -1152 -304 -1216 -304
WIRE -1120 -304 -1152 -304
WIRE -1376 -288 -1424 -288
WIRE -1376 -272 -1424 -272
WIRE -1312 -272 -1312 -304
WIRE -1216 -272 -1216 -304
WIRE -1152 -272 -1152 -304
WIRE -1376 -240 -1424 -240
WIRE -1376 -224 -1424 -224
WIRE -1376 -208 -1424 -208
WIRE -1312 -192 -1312 -208
WIRE -1216 -192 -1216 -208
WIRE -1152 -192 -1152 -208
WIRE -1376 -176 -1424 -176
WIRE -1376 -48 -1424 -48
WIRE -1216 -48 -1312 -48
WIRE -1152 -48 -1216 -48
WIRE -1120 -48 -1152 -48
WIRE -1376 -32 -1424 -32
WIRE -1376 -16 -1424 -16
WIRE -1312 -16 -1312 -48
WIRE -1216 -16 -1216 -48
WIRE -1152 -16 -1152 -48
WIRE -1376 16 -1424 16
WIRE -1376 32 -1424 32
WIRE -1376 48 -1424 48
WIRE -1312 64 -1312 48
WIRE -1216 64 -1216 48
WIRE -1152 64 -1152 48
WIRE -1376 80 -1424 80
WIRE -1040 192 -1056 192
WIRE -1024 192 -1040 192
FLAG -1152 64 0
FLAG -1312 64 0
FLAG -1120 -48 ZB
FLAG -1152 -192 0
FLAG -1312 -192 0
FLAG -1120 -304 ZA
FLAG -1216 64 0
FLAG -1216 -192 0
FLAG -1024 192 fL
DATAFLAG -1424 16 "$"
DATAFLAG -1424 32 "$"
DATAFLAG -1424 48 "$"
DATAFLAG -1424 80 "$"
DATAFLAG -1424 -48 "round(10k*$)/10k"
DATAFLAG -1424 -32 "round(10k*$)/10k"
DATAFLAG -1424 -16 "round(10k*$)/10k"
DATAFLAG -1424 -240 "$"
DATAFLAG -1424 -224 "$"
DATAFLAG -1424 -208 "$"
DATAFLAG -1424 -176 "$"
DATAFLAG -1424 -304 "round(10k*$)/10k"
DATAFLAG -1424 -288 "round(10k*$)/10k"
DATAFLAG -1424 -272 "round(10k*$)/10k"
DATAFLAG -1040 192 "round(10k*$)/10k"
SYMBOL MDB_sym\\source-Imini -1152 16 M180
WINDOW 3 21 -6 Left 2
WINDOW 0 21 18 Left 2
WINDOW 123 12 -29 Left 2
WINDOW 39 0 0 Left 2
SYMATTR Value ""
SYMATTR InstName I2
SYMATTR Value2 AC 1
SYMBOL testcrysOscMdbDetailed -1312 -240 R0
WINDOW 39 -130 114 Left 2
SYMATTR InstName X3
SYMATTR SpiceLine Ls={Ls} Cs={Cs} Cp={Cp} Rs={Rs}
SYMBOL MDB_sym\\source-Imini -1152 -240 M180
WINDOW 3 21 -6 Left 2
WINDOW 0 21 18 Left 2
WINDOW 123 12 -29 Left 2
WINDOW 39 0 0 Left 2
SYMATTR Value ""
SYMATTR InstName I3
SYMATTR Value2 AC 1
SYMBOL testcrysOscMdbDetailed -1312 16 R0
WINDOW 39 -54 97 Left 2
SYMATTR InstName X1
SYMATTR SpiceLine Ls={LsB} Cs={CsB} Cp={CpB} Rs={RsB}
SYMBOL cap -1232 -272 R0
SYMATTR InstName C1
SYMATTR Value {CL}
SYMBOL cap -1232 -16 R0
SYMATTR InstName C2
SYMATTR Value {CL}
SYMBOL MDB_sym\\source-Vmarker -1056 192 R0
SYMATTR Value V={fs*(1+Cs/(2*(Cp+CL)))}
SYMATTR InstName U1
TEXT -1544 184 Left 2 !.ac lin 10000 7meg 9meg
TEXT -1008 -304 Left 2 !.param cera=8\n+ fs = 8Meg\n+ Ls = 130uH\n+ Cp = 19.9pF\n+ Cs = 3.5pF\n+ Rs = 8
TEXT -1016 -48 Left 2 !.param cryst=8\n;+ f0 = 8Meg\n+ LsB = 180mH\n+ CpB = 4.48pF\n+ CsB = 0.002pF\n+ RsB = 155
TEXT -1544 208 Left 2 !.param f0 = 8Meg
TEXT -632 -264 Left 2 !.options plotwinsize=0\n.options meascplxfmt=cartesian\n \n.MEAS AC minMag min mag(V(Za)); \n.MEAS AC maxMag max mag(V(Za));\n.MEAS AC fs find freq when mag(V(Za))=minMag+1m cross=1\n.MEAS AC fp find freq when mag(V(Za))=maxMag-1m cross=1\n.MEAS AC df param fp-fs\n \n.MEAS AC minMagB min mag(V(Zb)); \n.MEAS AC maxMagB max mag(V(Zb));\n.MEAS AC fsB find freq when mag(V(Zb))=minMagB+1m cross=1\n.MEAS AC fpB find freq when mag(V(Zb))=maxMagB-1m cross=1\n.MEAS AC dfB param fpB-fsB
TEXT -816 192 Left 2 ;Ls={LsB} Cs={CsB} Cp={CpB} Rs={RsB}
TEXT -1008 -120 Left 2 !.param CL=1e-20
TEXT -752 120 Left 2 !.step param CL list 20f 1p 5p 20p
