Version 4
SHEET 1 880 680
WIRE 352 -320 256 -320
WIRE 256 -288 256 -320
WIRE 352 -224 352 -320
WIRE 144 -128 144 -208
WIRE 256 -128 256 -144
WIRE 304 -128 256 -128
WIRE 480 -128 480 -144
WIRE 256 -96 256 -128
WIRE 144 0 144 -48
WIRE 256 0 256 -32
WIRE 480 16 480 -48
FLAG 256 0 0
FLAG 144 0 0
FLAG 352 -224 0
FLAG 304 -128 x
SYMBOL SBORKA\\QUARTZ_CRYSTAL\\XTAL_param 272 -144 R180
SYMATTR InstName U1
SYMBOL MDB_sym\\source-V 144 -144 R0
WINDOW 123 28 107 Left 2
WINDOW 39 0 0 Left 2
SYMATTR InstName V1
SYMATTR Value 0
SYMATTR Value2 AC 1
SYMBOL cap 240 -96 R0
SYMATTR InstName C1
SYMATTR Value {CL}
SYMBOL MDB_sym\\negRes 256 -256 R0
SYMATTR InstName U2
TEXT 254 96 Left 2 !.tran 100u
TEXT 552 -72 Left 2 !.param test=1\n+ Rf=1meg\n+ Rs = .220\n+ CL=22p\n+ speed = .1
TEXT 488 -208 Left 2 !.ic V(x)=1
