Version 4
SHEET 1 976 680
WIRE 768 -112 736 -112
WIRE 816 -112 768 -112
WIRE 208 -64 208 -80
WIRE -128 -16 -128 -32
WIRE -48 -16 -48 -32
WIRE 640 32 640 16
WIRE -128 64 -128 48
WIRE -128 64 -160 64
WIRE -48 64 -48 48
WIRE -16 64 -48 64
WIRE 208 64 208 0
WIRE 208 64 144 64
WIRE 272 64 208 64
WIRE 304 64 272 64
WIRE 368 64 336 64
WIRE 144 96 144 64
WIRE -128 112 -128 64
WIRE -48 112 -48 64
WIRE 368 128 368 64
WIRE 640 160 640 96
WIRE 640 160 576 160
WIRE 720 160 640 160
WIRE -128 208 -128 176
WIRE -48 208 -48 192
WIRE 144 208 144 176
WIRE 272 208 272 64
WIRE 576 208 576 160
WIRE 368 224 368 208
WIRE 720 288 720 160
WIRE 576 304 576 288
WIRE 640 304 576 304
WIRE -128 320 -128 288
WIRE -48 320 -48 288
WIRE 144 320 144 288
WIRE 576 336 576 304
WIRE 640 336 640 304
WIRE 144 416 144 384
WIRE 208 416 144 416
WIRE 272 416 272 272
WIRE 272 416 208 416
WIRE 576 448 576 400
WIRE 640 448 640 416
WIRE 640 448 576 448
WIRE 720 448 720 352
WIRE 720 448 640 448
WIRE 208 480 208 416
WIRE 640 496 640 448
FLAG 208 -80 0
FLAG 208 480 0
FLAG 640 496 0
FLAG 640 16 0
FLAG 768 -112 rp
FLAG -128 320 0
FLAG -48 320 0
FLAG -128 -32 0
FLAG -48 -32 0
FLAG -160 64 Xc
FLAG -16 64 Xl
FLAG 368 224 0
DATAFLAG 816 -112 ""
SYMBOL res 128 80 R0
SYMATTR InstName R1
SYMATTR Value {Rs}
SYMBOL ind 128 192 R0
SYMATTR InstName L1
SYMATTR Value {Ls}
SYMBOL cap 128 320 R0
SYMATTR InstName C1
SYMATTR Value {Cs}
SYMBOL res 624 320 R0
SYMATTR InstName R2
SYMATTR Value {Rp}
SYMBOL ind 560 192 R0
SYMATTR InstName L2
SYMATTR Value {Ls}
SYMBOL cap 560 336 R0
SYMATTR InstName C3
SYMATTR Value {Cs}
SYMBOL cap 704 288 R0
SYMATTR InstName C4
SYMATTR Value {Cp}
SYMBOL MDB_sym\\source-Imini 640 64 R0
WINDOW 123 21 20 Left 2
WINDOW 39 0 0 Left 2
SYMATTR Value ""
SYMATTR InstName I2
SYMATTR Value2 AC 1
SYMBOL MDB_sym\\source-Vmarker 736 -112 R0
SYMATTR Value V={Rp}
SYMATTR InstName U1
SYMBOL cap -144 112 R0
SYMATTR InstName C5
SYMATTR Value {Cp}
SYMBOL ind -64 96 R0
SYMATTR InstName L3
SYMATTR Value {Ls}
SYMBOL MDB_sym\\source-Imini -128 16 R0
WINDOW 123 21 20 Left 2
WINDOW 39 0 0 Left 2
SYMATTR Value ""
SYMATTR InstName I3
SYMATTR Value2 AC 1
SYMBOL MDB_sym\\source-Imini -48 16 R0
WINDOW 123 21 20 Left 2
WINDOW 39 0 0 Left 2
SYMATTR Value ""
SYMATTR InstName I4
SYMATTR Value2 AC 1
SYMBOL res -144 192 R0
SYMATTR InstName R3
SYMATTR Value {Rs/2}
SYMBOL res -64 192 R0
SYMATTR InstName R4
SYMATTR Value {Rs/2}
SYMBOL MDB_sym\\source-V 368 112 R0
WINDOW 123 28 107 Left 2
WINDOW 39 0 0 Left 2
SYMATTR InstName V1
SYMATTR Value ""
SYMATTR Value2 AC 1
SYMBOL cap 256 208 R0
SYMATTR InstName C2
SYMATTR Value {Cp}
SYMBOL MDB_sym\\arrow_curr 320 64 R90
WINDOW 0 -4 0 VBottom 2
SYMATTR InstName R5
TEXT 344 -304 Left 2 !.param Cryst=1\n+ Rs = 1\n+ Cs = 98.9p\n+ Ls = {1/((2*pi*fs)**2*Cs)}\n+ Cp = {Cs/(Cs*Ls*(2*pi*fp)**2-1)}\n+ fs = 10Meg\n+ fp = {fs+500k}\n \n+ Rp = {(2*pi*fs)**2/Rs}
TEXT 126 504 Left 2 !.ac oct 1000 1meg 100meg
TEXT 124 524 Left 2 ;.tran 1m
TEXT 336 -32 Left 2 ;.step param Cs 100p 1n 200p
