Version 4
SHEET 1 1200 1572
WIRE -352 -240 -352 -384
WIRE -240 -240 -352 -240
WIRE 192 -240 -208 -240
WIRE -240 -224 -240 -240
WIRE -208 -224 -208 -240
WIRE -352 -208 -352 -240
WIRE -240 -160 -240 -176
WIRE -208 -160 -208 -176
WIRE -208 -160 -240 -160
WIRE -160 -160 -208 -160
WIRE -832 -144 -832 -176
WIRE -64 -144 -96 -144
WIRE 128 -144 -64 -144
WIRE 192 -144 192 -240
WIRE 192 -144 128 -144
WIRE 272 -144 192 -144
WIRE -160 -128 -208 -128
WIRE -64 -128 -64 -144
WIRE 128 -112 128 -144
WIRE 192 -112 192 -144
WIRE 272 -112 272 -144
WIRE -352 -96 -352 -128
WIRE -448 -32 -928 -32
WIRE -208 -32 -208 -128
WIRE -64 -32 -64 -48
WIRE -64 -32 -208 -32
WIRE -928 -16 -928 -32
WIRE -64 -16 -64 -32
WIRE 128 0 128 -48
WIRE 192 0 192 -32
WIRE 272 0 272 -32
WIRE -960 80 -976 80
WIRE -928 80 -928 64
WIRE -928 80 -960 80
WIRE -864 80 -928 80
WIRE -64 80 -64 64
WIRE -768 96 -800 96
WIRE -640 96 -688 96
WIRE -928 112 -928 80
WIRE -528 112 -576 112
WIRE -688 128 -688 96
WIRE -448 128 -448 -32
WIRE -448 128 -464 128
WIRE -432 128 -448 128
WIRE -928 208 -928 176
WIRE -688 224 -688 192
WIRE 512 256 512 240
WIRE -1040 272 -1136 272
WIRE -928 272 -992 272
WIRE 288 320 288 304
WIRE 608 320 592 320
WIRE 640 320 608 320
WIRE 592 352 592 320
WIRE 512 368 512 336
WIRE -1136 416 -1136 272
WIRE -1072 416 -1136 416
WIRE 288 416 288 400
WIRE 288 416 224 416
WIRE 336 416 288 416
WIRE 368 416 336 416
WIRE -864 432 -960 432
WIRE 512 432 512 416
WIRE 224 448 224 416
WIRE 288 448 288 416
WIRE 368 448 368 416
WIRE 592 448 592 432
WIRE 224 560 224 512
WIRE 288 560 288 528
WIRE 368 560 368 528
WIRE -1136 592 -1136 416
WIRE -1072 592 -1072 448
WIRE -1072 592 -1136 592
WIRE -720 592 -1072 592
WIRE 208 656 -192 656
WIRE -1136 672 -1136 592
WIRE -1104 672 -1136 672
WIRE -976 688 -976 672
WIRE -976 688 -992 688
WIRE -848 688 -848 672
WIRE -848 688 -864 688
WIRE -720 688 -720 592
WIRE -720 688 -736 688
WIRE -1136 704 -1136 672
WIRE -1088 704 -1136 704
WIRE -976 704 -976 688
WIRE -848 704 -848 688
WIRE -192 736 -192 656
WIRE -144 736 -192 736
WIRE -48 752 -80 752
WIRE 144 752 -48 752
WIRE 208 752 208 656
WIRE 208 752 144 752
WIRE 288 752 208 752
WIRE -144 768 -192 768
WIRE -48 768 -48 752
WIRE 144 784 144 752
WIRE 208 784 208 752
WIRE 288 784 288 752
WIRE -1024 832 -1136 832
WIRE -832 832 -944 832
WIRE -192 864 -192 768
WIRE -48 864 -48 848
WIRE -48 864 -192 864
WIRE -48 880 -48 864
WIRE -1136 896 -1136 832
WIRE -1120 896 -1136 896
WIRE -1104 896 -1120 896
WIRE -976 896 -1008 896
WIRE -832 896 -832 832
WIRE -832 896 -864 896
WIRE 144 896 144 848
WIRE 208 896 208 864
WIRE 288 896 288 864
WIRE -48 976 -48 960
FLAG 192 0 0
FLAG 128 0 0
FLAG 128 -144 out1
FLAG -64 80 0
FLAG -352 -96 0
FLAG 272 0 0
FLAG 288 560 0
FLAG 224 560 0
FLAG 368 560 0
FLAG 288 304 0
FLAG 512 432 0
FLAG 592 448 0
FLAG 512 240 0
FLAG 608 320 Rp
FLAG 336 416 out
FLAG 208 896 0
FLAG 144 896 0
FLAG 144 752 out2
FLAG -48 976 0
FLAG 288 896 0
FLAG -832 -144 0
FLAG -928 208 0
FLAG -992 688 0
FLAG -976 80 ic1
FLAG -688 224 0
FLAG -976 160 0
FLAG -960 80 0
FLAG -1136 896 0
SYMBOL cap 112 -112 R0
SYMATTR InstName C1
SYMATTR Value {C}
SYMBOL ind 176 -128 R0
SYMATTR InstName L1
SYMATTR Value {L}
SYMBOL EIT_Semiconductors\\op_3 -128 -144 M180
WINDOW 123 -35 -255 Left 2
WINDOW 3 -16 43 Invisible 2
WINDOW 39 -45 -282 Left 2
SYMATTR InstName U1
SYMATTR SpiceLine Vos=10u A0=100k phir=45
SYMBOL res -80 -144 R0
SYMATTR InstName R2
SYMATTR Value {(A-1)*R1+1u}
SYMBOL res -80 -32 R0
SYMATTR InstName R3
SYMATTR Value {R1}
SYMBOL MDB_sym\\jumper -304 -208 R270
SYMATTR InstName X1
SYMBOL MDB_sym\\source-V -352 -224 R0
WINDOW 123 28 54 Left 2
WINDOW 39 0 0 Left 2
SYMATTR InstName V1
SYMATTR Value ""
SYMATTR Value2 AC 5
SYMBOL res 256 -128 R0
SYMATTR InstName R4
SYMATTR Value {Rp}
SYMBOL cap 208 448 R0
SYMATTR InstName C2
SYMATTR Value {C}
SYMBOL ind 272 432 R0
SYMATTR InstName L2
SYMATTR Value {L}
SYMBOL res 352 432 R0
SYMATTR InstName R5
SYMATTR Value {Rp}
SYMBOL MDB_sym\\source-I 288 400 R180
WINDOW 0 29 73 Left 2
WINDOW 3 29 17 Left 2
WINDOW 123 29 -9 Left 2
WINDOW 39 0 0 Left 2
SYMATTR InstName I1
SYMATTR Value ""
SYMATTR Value2 AC 1
SYMBOL crtl-I-V 592 336 R0
SYMATTR InstName U2
SYMATTR Value H=Rp
SYMBOL MDB_sym\\source-I 512 336 R180
WINDOW 0 29 73 Left 2
WINDOW 3 29 17 Left 2
WINDOW 123 29 -9 Left 2
WINDOW 39 0 0 Left 2
SYMATTR InstName I2
SYMATTR Value ""
SYMATTR Value2 AC 1
SYMBOL cap 128 784 R0
SYMATTR InstName C3
SYMATTR Value {C}
SYMBOL ind 192 768 R0
SYMATTR InstName L3
SYMATTR Value {L}
SYMBOL EIT_Semiconductors\\op_3 -112 752 M180
WINDOW 123 -35 -255 Left 2
WINDOW 3 -45 -308 Left 2
WINDOW 39 -45 -282 Left 2
SYMATTR Value2 FT=100Meg SR=100
SYMATTR InstName U3
SYMATTR SpiceLine Vos=10u A0=100k phir=45
SYMBOL res -64 752 R0
SYMATTR InstName R7
SYMATTR Value {(A-1)*R1+1u}
SYMBOL res -64 864 R0
SYMATTR InstName R8
SYMATTR Value {R1}
SYMBOL res 272 768 R0
SYMATTR InstName R9
SYMATTR Value {Rp}
SYMBOL Dig_Add\\CD4xxx\\cd4049b -1072 832 R0
SYMATTR InstName U7
SYMBOL Dig_Add\\CD4xxx\\cd4049b -928 832 R0
SYMATTR InstName U8
SYMBOL Digital\\buf -864 16 R0
SYMATTR InstName A1
SYMBOL Digital\\buf -640 32 R0
SYMATTR InstName A2
SYMBOL res -944 -32 R0
SYMATTR InstName R1
SYMATTR Value 10k
SYMBOL cap -944 112 R0
SYMATTR InstName C4
SYMATTR Value 10pF
SYMBOL Digital\\buf -528 48 R0
SYMATTR InstName A3
SYMBOL res -784 112 R270
WINDOW 0 25 56 VTop 2
WINDOW 3 7 56 VBottom 2
SYMATTR InstName R6
SYMATTR Value 1
SYMBOL cap -704 128 R0
SYMATTR InstName C5
SYMATTR Value 1p
SYMBOL res -928 816 R90
WINDOW 0 7 56 VBottom 2
WINDOW 3 25 56 VTop 2
SYMATTR InstName R10
SYMATTR Value 100
TEXT 344 -256 Left 2 !.param beding=1\n+ R1 = 10k\n+ Rv = 100k\n+ Rp = 10**(40dB/20)\n+ f0 = 1meg\n+ C = 40n\n+ L = {1/(4*pi**2*f0**2*C)}\n+ Q1 = 100\n;+ R = {Q1/(2*pi*f0*C)}\n+ A = 1.5
TEXT -386 206 Left 2 ;.tran 0 1m 0 10e-15 startup
TEXT 336 8 Left 2 !.options plotwinsize=0
TEXT 320 88 Left 2 ;.step param A list 0.9 1 2
TEXT -388 226 Left 2 !.ac oct 1000 100 1g
TEXT 312 136 Left 2 ;.step param Q list 100 10k
TEXT -536 360 Left 2 ;.MEAS AC Apeak MAX MAG(V(out)) FROM=100kHz TO=250khz\n \n.MEASURE AC MaxMag Max Mag(V(out))\n.MEASURE AC BW3dB \n+ Trig Mag(V(out))=MaxMag/Sqrt(2) rise=1 \n+ Targ Mag(V(out))=MaxMag/Sqrt(2) fall=last
TEXT -1016 -80 Left 2 ;.ic V(ic1)=0.5
