Version 4
SHEET 1 888 680
WIRE 16 -896 0 -896
WIRE 48 -896 16 -896
WIRE 96 -896 48 -896
WIRE 16 -848 16 -896
WIRE 16 -848 -48 -848
WIRE 96 -848 16 -848
WIRE -48 -816 -48 -848
WIRE 16 -816 16 -848
WIRE 96 -816 96 -848
WIRE -48 -704 -48 -736
WIRE 16 -704 16 -736
WIRE 16 -704 -48 -704
WIRE 64 -704 16 -704
WIRE 96 -704 96 -752
WIRE 96 -704 64 -704
WIRE 16 -656 16 -704
WIRE 16 -656 -64 -656
WIRE 80 -656 16 -656
WIRE 16 -640 16 -656
WIRE -32 -608 -64 -608
WIRE -64 -592 -64 -608
WIRE -64 -592 -80 -592
WIRE -32 -592 -64 -592
WIRE -64 -576 -64 -592
WIRE -32 -576 -64 -576
WIRE 80 -560 80 -656
WIRE 80 -560 16 -560
WIRE 16 -464 16 -560
WIRE 16 -336 16 -400
FLAG 16 -336 0
FLAG 64 -704 C
FLAG 48 -896 +5V
FLAG -64 -576 0
SYMBOL MDB_sym\\source-Vmarker 0 -896 R0
SYMATTR InstName U1
SYMBOL ind -32 -832 M0
SYMATTR InstName L1
SYMATTR Value {L}
SYMBOL cap 80 -816 R0
SYMATTR InstName C1
SYMATTR Value {C}
SYMBOL EIT_Semiconductors\\nmos 352 -464 R0
SYMATTR InstName M3
SYMATTR Value IRFL014
SYMBOL MDB_sym\\source-Imini 16 -432 R0
WINDOW 39 0 0 Left 2
SYMATTR Value {I0}
SYMATTR InstName I1
SYMATTR Value2 ""
SYMBOL EIT_Semiconductors\\njf -32 -656 R0
SYMATTR InstName J1
TEXT 656 -712 Left 2 !.model PMOSx vdmos(\n+ pchan\n+ Rd=.1m\n+ Rs=.1m\n+ Vto=-2V\n+ Kp=60\n+ Cgdmax=1nF\n+ Cgdmin=.1n\n+ Cgs=5n\n+Cjo=3n)\n \n.model NMOSx vdmos(\n+ nchan\n+ Rd=.1m\n+ Rs=.1m\n+ Vto=2V\n+ Kp=60\n+ Cgdmax=1nF\n+ Cgdmin=.1n\n+ Cgs=5n\n+Cjo=3n)
TEXT 664 -744 Left 2 !.options plotwinsize=0
TEXT 344 -736 Left 2 !.param LCosc=1\n+ R = 1k\n+ L = {1/(4*(pi*f0)**2*C)}\n+ C = 100p\n+ f0 = 250k\n+ I0 = 10m
TEXT -98 -136 Left 2 !.tran 10m
TEXT 288 -888 Left 2 !.ic V(+5V,C) = 5V
