Version 4
SHEET 1 880 1076
WIRE -592 -720 -592 -736
WIRE -928 -656 -960 -656
WIRE -928 -608 -928 -656
WIRE -976 -592 -1024 -592
WIRE -1024 -496 -1024 -592
WIRE -1024 -496 -1120 -496
WIRE -928 -496 -928 -512
WIRE -800 -496 -928 -496
WIRE -928 -480 -928 -496
WIRE -1024 -400 -1024 -496
WIRE -976 -400 -1024 -400
WIRE -928 -368 -928 -384
WIRE -1120 -320 -1120 -496
WIRE -1088 -320 -1120 -320
WIRE -1072 -320 -1088 -320
WIRE -944 -320 -992 -320
WIRE -864 -320 -880 -320
WIRE -800 -320 -800 -496
WIRE -800 -320 -864 -320
WIRE -1264 -304 -1264 -336
WIRE -800 -304 -800 -320
WIRE -1264 -192 -1264 -224
WIRE -1120 -144 -1120 -320
WIRE -992 -144 -1120 -144
WIRE -800 -144 -800 -224
WIRE -800 -144 -928 -144
WIRE -1120 -128 -1120 -144
WIRE -1120 -128 -1168 -128
WIRE -800 -128 -800 -144
WIRE -784 -128 -800 -128
WIRE -1120 -48 -1120 -128
WIRE -800 -48 -800 -128
WIRE -1120 48 -1120 16
WIRE -800 48 -800 16
FLAG -1168 -128 XTAL1
FLAG -784 -128 XTAL2
FLAG -928 -368 0
FLAG -1120 48 0
FLAG -800 48 0
FLAG -592 -720 0
FLAG -1264 -192 0
FLAG -1088 -320 in
FLAG -928 -16 0
FLAG -992 -16 0
SYMBOL EIT_Semiconductors\\nmos -976 -480 R0
SYMATTR InstName M1
SYMBOL EIT_Semiconductors\\pmos -976 -512 M180
SYMATTR InstName M2
SYMBOL MDB_sym\\source-Vmarker -960 -656 R0
SYMATTR InstName U2
SYMBOL cap -816 -48 R0
SYMATTR InstName C6
SYMATTR Value 2p
SYMBOL cap -1136 -48 R0
SYMATTR InstName C7
SYMATTR Value 22p
SYMBOL res -976 -336 R90
WINDOW 0 7 56 VBottom 2
WINDOW 3 25 56 VTop 2
SYMATTR InstName R4
SYMATTR Value 1meg
SYMBOL res -816 -320 R0
SYMATTR InstName R5
SYMATTR Value 470
SYMBOL MDB_sym\\source-V -1264 -320 R0
WINDOW 123 28 54 Left 2
WINDOW 39 0 0 Left 2
SYMATTR InstName V1
SYMATTR Value 0
SYMATTR Value2 AC 1
SYMBOL SBORKA\\QUARTZ_CRYSTAL\\CRYSTAL_9_OVERTONE -928 -160 R90
SYMATTR InstName U1
SYMBOL bi -864 -320 R90
WINDOW 0 -32 40 VBottom 2
WINDOW 3 32 40 VTop 2
SYMATTR InstName B1
SYMATTR Value I=1n*rand(10k*TIME)
TEXT 256 -472 Left 2 !.param test=1\n+ Rf=1meg\n+ Rv = .220\n+ CL=22p\n+ speed = .1
TEXT -496 -96 Left 2 ;http://www.murata.com/~/media/webrenewal/support/library/catalog/products/timingdevice/ceralock/p16e.ashx
TEXT -480 -264 Left 2 !.tran 0 10 10m {0*1/(50meg)}
TEXT -496 -600 Left 2 !.options plotwinsize=0\n.param PierceOscill=1\n+ Rs = 23\n+ Cs = 27e-15\n+ Ls = 12mH\n+ Cp = 6p\n+ f0 = 1meg\n+ C = 40n\n+ L = {1/(4*pi**2*f0**2*C)}\n+ Q = 50000\n+ Rp = {Q/(2*pi*f0*C)}\n+ A = 1.5
TEXT -752 -592 Left 2 ;.ic V(XTAL2) = 5V
TEXT -1232 72 Left 2 ;.ac oct 1000 10k 10000meg
