Version 4
SHEET 1 880 680
WIRE 80 -352 -96 -352
WIRE -624 -304 -752 -304
WIRE -560 -304 -624 -304
WIRE -432 -304 -560 -304
WIRE -624 -288 -624 -304
WIRE -96 -288 -96 -352
WIRE -32 -288 -96 -288
WIRE -96 -272 -96 -288
WIRE -672 -224 -688 -224
WIRE -144 -208 -160 -208
WIRE 80 -208 80 -352
WIRE 128 -208 80 -208
WIRE 160 -208 128 -208
WIRE -624 -192 -624 -208
WIRE -432 -176 -432 -304
WIRE -96 -176 -96 -192
WIRE -752 -144 -752 -304
WIRE -560 -144 -560 -304
WIRE -560 -144 -576 -144
WIRE 80 -144 80 -208
WIRE -32 -128 -32 -288
WIRE -32 -128 -48 -128
WIRE 160 -112 160 -208
WIRE -688 -96 -688 -224
WIRE -624 -96 -624 -112
WIRE -624 -96 -688 -96
WIRE -160 -80 -160 -208
WIRE -96 -80 -96 -96
WIRE -96 -80 -160 -80
WIRE -752 -32 -752 -64
WIRE -624 -32 -624 -96
WIRE -432 -32 -432 -96
WIRE -96 -16 -96 -80
WIRE 80 16 80 -64
WIRE 160 16 160 -48
WIRE 160 16 80 16
WIRE -96 96 -96 64
WIRE 0 96 -96 96
WIRE 80 96 80 16
WIRE 80 96 0 96
WIRE 0 144 0 96
FLAG -624 -32 0
FLAG -752 -32 0
FLAG -432 -32 0
FLAG 128 -208 C2
FLAG 0 144 0
SYMBOL EIT_Semiconductors\\pjf -576 -208 M0
SYMATTR InstName J1
SYMBOL EIT_Semiconductors\\njf -672 -288 R0
SYMATTR InstName J2
SYMBOL MDB_sym\\source-V -752 -160 R0
WINDOW 3 -99 169 Left 2
WINDOW 123 28 107 Left 2
WINDOW 39 0 0 Left 2
SYMATTR Value ""
SYMATTR InstName V1
SYMBOL MDB_sym\\negRes -432 -144 R0
SYMATTR InstName U1
SYMATTR Value2 R=-50k
SYMBOL EIT_Semiconductors\\pjf -48 -192 M0
SYMATTR InstName J3
SYMBOL EIT_Semiconductors\\njf -144 -272 R0
SYMATTR InstName J4
SYMBOL res -112 -32 R0
SYMATTR InstName R1
SYMATTR Value 1k
SYMBOL ind 96 -160 M0
SYMATTR InstName L1
SYMATTR Value 100µ
SYMBOL cap 176 -112 M0
SYMATTR InstName C1
SYMATTR Value .25n
TEXT 176 -344 Left 2 !.ic V(C2)=2V
TEXT -780 168 Left 2 !.dc V1 0 2 .1
