Version 4
SHEET 1 1968 1908
WIRE 480 656 480 640
WIRE 256 720 224 720
WIRE 272 720 256 720
WIRE 256 768 224 768
WIRE 272 768 256 768
WIRE 480 768 480 752
WIRE 528 848 128 848
WIRE 128 928 128 848
WIRE 176 928 128 928
WIRE 272 944 240 944
WIRE 352 944 272 944
WIRE 464 944 432 944
WIRE 528 944 528 848
WIRE 528 944 464 944
WIRE 608 944 528 944
WIRE 176 960 128 960
WIRE 272 960 272 944
WIRE 464 976 464 944
WIRE 528 976 528 944
WIRE 528 1024 528 1008
WIRE 128 1056 128 960
WIRE 272 1056 272 1040
WIRE 272 1056 128 1056
WIRE 272 1072 272 1056
WIRE 464 1088 464 1040
WIRE 528 1136 528 1104
WIRE 272 1168 272 1152
WIRE 1696 1216 1408 1216
WIRE 1552 1312 1520 1312
WIRE 1648 1312 1616 1312
WIRE 336 1328 304 1328
WIRE 432 1328 400 1328
WIRE 1520 1392 1520 1312
WIRE 1536 1392 1520 1392
WIRE 1648 1392 1648 1312
WIRE 1648 1392 1616 1392
WIRE 304 1408 304 1328
WIRE 336 1408 304 1408
WIRE 432 1408 432 1328
WIRE 432 1408 400 1408
WIRE 1408 1440 1408 1216
WIRE 1424 1440 1408 1440
WIRE 1520 1440 1520 1392
WIRE 1520 1440 1504 1440
WIRE 1536 1440 1520 1440
WIRE 1648 1440 1648 1392
WIRE 1648 1440 1616 1440
WIRE 304 1472 288 1472
WIRE 320 1472 304 1472
WIRE 432 1472 400 1472
WIRE 800 1472 784 1472
WIRE 816 1472 800 1472
WIRE 928 1472 896 1472
WIRE 1520 1504 1520 1440
WIRE 1536 1504 1520 1504
WIRE 1632 1520 1600 1520
WIRE 1648 1520 1648 1440
WIRE 1648 1520 1632 1520
WIRE 1696 1520 1696 1216
WIRE 1696 1520 1648 1520
WIRE 304 1536 304 1472
WIRE 320 1536 304 1536
WIRE 800 1536 800 1472
WIRE 816 1536 800 1536
WIRE 1536 1536 1520 1536
WIRE 416 1552 384 1552
WIRE 432 1552 432 1472
WIRE 432 1552 416 1552
WIRE 928 1552 928 1472
WIRE 928 1552 880 1552
WIRE 320 1568 304 1568
WIRE 800 1568 752 1568
WIRE 816 1568 800 1568
WIRE 752 1584 752 1568
WIRE 1520 1584 1520 1536
WIRE 256 1616 208 1616
WIRE 304 1616 304 1568
WIRE 304 1616 256 1616
WIRE 320 1616 304 1616
WIRE 432 1616 432 1552
WIRE 432 1616 400 1616
WIRE 208 1648 208 1616
WIRE 256 1648 256 1616
WIRE 752 1680 752 1664
WIRE 208 1744 208 1728
WIRE 256 1744 256 1712
WIRE 1280 1808 1264 1808
WIRE 1376 1808 1344 1808
WIRE 1440 1808 1376 1808
WIRE 1440 1824 1440 1808
FLAG 528 1136 0
FLAG 464 1088 0
FLAG 464 944 x2
FLAG 272 1168 0
FLAG 256 720 r2
FLAG 480 768 0
FLAG 480 640 0
FLAG 256 768 L
FLAG 208 1472 0
FLAG 208 1744 0
FLAG 256 1744 0
FLAG 704 1472 0
FLAG 752 1680 0
FLAG 800 1568 s
FLAG 432 1408 0
FLAG 256 1616 +
FLAG 304 1472 -
FLAG 416 1552 o
FLAG 1632 1520 o2
FLAG 1520 1584 0
FLAG 1520 1504 -2
FLAG 1264 1808 0
FLAG 1440 1888 0
FLAG 1376 1888 0
SYMBOL res 336 960 R270
WINDOW 0 25 56 VTop 2
WINDOW 3 7 56 VBottom 2
SYMATTR InstName R3
SYMATTR Value {Rs}
SYMBOL cap 448 976 R0
SYMATTR InstName C2
SYMATTR Value {C}
SYMBOL ind 512 1008 R0
SYMATTR InstName L2
SYMATTR Value {L}
SYMBOL EIT_Semiconductors\\op_3 208 944 M180
WINDOW 123 -35 -255 Left 2
WINDOW 3 -16 43 Invisible 2
WINDOW 39 -45 -282 Left 2
SYMATTR Value2 FT=100Meg SR=100
SYMATTR InstName U2
SYMATTR SpiceLine Vos=10m A0=100k phir=45
SYMBOL res 256 944 R0
SYMATTR InstName R4
SYMATTR Value {(A-1)*R1+1u}
SYMBOL res 256 1056 R0
SYMATTR InstName R5
SYMATTR Value {R1}
SYMBOL MDB_sym\\source-Vmarker 224 720 R0
SYMATTR Value V={(A-1)*R1+1u}
SYMATTR InstName U3
SYMBOL MDB_sym\\source-Imini 480 688 R0
WINDOW 39 0 0 Left 2
WINDOW 123 0 0 Left 2
SYMATTR Value SINE(0 1 1meg)
SYMATTR InstName I1
SYMATTR Value2 ""
SYMBOL MDB_sym\\isoR 480 736 R0
SYMATTR InstName R6
SYMATTR Value 1
SYMBOL MDB_sym\\source-Vmarker 224 768 R0
SYMATTR Value V={L}
SYMATTR InstName U1
SYMBOL MDB_sym\\isoR 528 992 R0
WINDOW 3 9 36 Left 2
SYMATTR InstName R1
SYMATTR Value 10
SYMBOL EIT_Semiconductors\\op_3 352 1552 R0
WINDOW 123 140 -239 Left 2
WINDOW 3 -16 43 Invisible 2
WINDOW 39 137 -264 Left 2
SYMATTR Value2 FT=100Meg SR=100
SYMATTR InstName U4
SYMATTR SpiceLine Vos=10m A0=100k phir=45
SYMBOL res 304 1488 R270
WINDOW 0 25 56 VTop 2
WINDOW 3 7 56 VBottom 2
SYMATTR InstName R2
SYMATTR Value 10k
SYMBOL res 192 1488 R270
WINDOW 0 25 56 VTop 2
WINDOW 3 7 56 VBottom 2
SYMATTR InstName R7
SYMATTR Value 10k
SYMBOL res 304 1632 R270
WINDOW 0 25 56 VTop 2
WINDOW 3 7 56 VBottom 2
SYMATTR InstName R8
SYMATTR Value 10k
SYMBOL ind 224 1632 M0
WINDOW 39 36 106 Left 2
SYMATTR InstName L1
SYMATTR Value {L}
SYMATTR SpiceLine Rser=5
SYMBOL cap 240 1648 R0
SYMATTR InstName C1
SYMATTR Value {C}
SYMBOL diode 400 1392 R90
WINDOW 0 0 32 VBottom 2
WINDOW 3 32 32 VTop 2
SYMATTR InstName D1
SYMATTR Value 1N4148
SYMBOL diode 336 1312 M90
WINDOW 0 0 32 VBottom 2
WINDOW 3 32 32 VTop 2
SYMATTR InstName D2
SYMATTR Value 1N4148
SYMBOL EIT_Semiconductors\\op_3 848 1552 R0
WINDOW 123 140 -239 Left 2
WINDOW 3 -16 43 Invisible 2
WINDOW 39 137 -264 Left 2
SYMATTR Value2 FT=100Meg SR=100
SYMATTR InstName U5
SYMATTR SpiceLine Vos=10m A0=100k phir=45
SYMBOL res 800 1488 R270
WINDOW 0 25 56 VTop 2
WINDOW 3 7 56 VBottom 2
SYMATTR InstName R9
SYMATTR Value 10k
SYMBOL res 688 1488 R270
WINDOW 0 25 56 VTop 2
WINDOW 3 7 56 VBottom 2
SYMATTR InstName R10
SYMATTR Value 10k
SYMBOL MDB_sym\\source-V 752 1568 R0
WINDOW 3 -186 151 Left 2
WINDOW 123 0 0 Left 2
WINDOW 39 0 0 Left 2
SYMATTR Value PWL(0 0 1m 0 1.001m 1 10m 1 10.001m 2 20m 2 20.001m 3)
SYMATTR InstName V1
SYMBOL EIT_Semiconductors\\op_3 1568 1520 R0
WINDOW 123 140 -239 Left 2
WINDOW 3 -16 43 Invisible 2
WINDOW 39 137 -264 Left 2
SYMATTR Value2 FT=100Meg SR=100
SYMATTR InstName U6
SYMATTR SpiceLine Vos=10m A0=100k phir=45
SYMBOL res 1520 1456 R270
WINDOW 0 25 56 VTop 2
WINDOW 3 7 56 VBottom 2
SYMATTR InstName R11
SYMATTR Value 10k
SYMBOL res 1408 1456 R270
WINDOW 0 25 56 VTop 2
WINDOW 3 7 56 VBottom 2
SYMATTR InstName R12
SYMATTR Value 1k
SYMBOL ind 1632 1408 M270
WINDOW 39 36 106 Left 2
SYMATTR InstName L3
SYMATTR Value {L}
SYMATTR SpiceLine Rser=5
SYMBOL cap 1552 1328 R270
WINDOW 0 32 32 VTop 2
WINDOW 3 0 32 VBottom 2
SYMATTR InstName C3
SYMATTR Value {C}
SYMBOL MDB_sym\\source-Imini 1312 1808 R270
WINDOW 3 -18 0 VBottom 2
WINDOW 0 18 0 VTop 2
WINDOW 39 0 0 Left 2
SYMATTR Value ""
SYMATTR InstName I2
SYMATTR Value2 AC 1
SYMBOL cap 1424 1824 R0
SYMATTR InstName C4
SYMATTR Value 1n
SYMBOL ind 1360 1792 R0
SYMATTR InstName L4
SYMATTR Value 1µ
TEXT 736 864 Left 2 !.param beding=1\n+ Rv = 100k\n+ Rs = 100\n+ f0 = 500k\n+ C = 10p\n+ L = {1/(4*pi**2*f0**2*C)}\n+ A = 2\n+ R1 = 10k
TEXT 704 736 Left 2 !.ac oct 100 10 200meg
TEXT 704 752 Left 2 ;.tran 500u startup
TEXT 352 872 Left 2 !.ic V(x2) = 100mV
TEXT 712 816 Left 2 ;.step param A 0.5 100 1
TEXT 696 688 Left 2 !.options plotwinsize=0
TEXT 32 1584 Left 2 !.ic V(+) = 0V\n.ic V(-) = 0V\n.ic V(o) = 0V
TEXT 1360 1528 Left 2 !.ic V(-2,o2)=1
