Version 4
SHEET 1 928 1712
WIRE -624 -272 -640 -272
WIRE -384 -272 -624 -272
WIRE -336 -272 -384 -272
WIRE -624 -224 -624 -272
WIRE -384 -144 -384 -272
WIRE -624 -96 -624 -144
WIRE -624 -96 -720 -96
WIRE -480 -96 -624 -96
WIRE -448 -96 -480 -96
WIRE -480 -80 -480 -96
WIRE -896 -48 -896 -96
WIRE -896 -48 -944 -48
WIRE -848 -48 -896 -48
WIRE -848 -16 -848 -48
WIRE -624 0 -624 -96
WIRE -480 16 -480 -16
WIRE -416 16 -480 16
WIRE -384 16 -384 -48
WIRE -384 16 -416 16
WIRE -480 48 -480 16
WIRE -384 48 -384 16
WIRE -944 64 -944 -48
WIRE -624 176 -624 80
WIRE -480 176 -480 112
WIRE -384 176 -384 128
WIRE -480 192 -480 176
WIRE -944 224 -944 128
WIRE -896 224 -944 224
WIRE -848 224 -848 208
WIRE -848 224 -896 224
WIRE -896 272 -896 224
WIRE -448 400 -448 384
WIRE -448 496 -448 480
WIRE -448 496 -512 496
WIRE -400 496 -448 496
WIRE -384 496 -400 496
WIRE -512 512 -512 496
WIRE -384 544 -384 496
WIRE -912 576 -960 576
WIRE -864 576 -912 576
WIRE -736 576 -768 576
WIRE -688 576 -736 576
WIRE -960 592 -960 576
WIRE -864 608 -864 576
WIRE -512 608 -512 592
WIRE -768 624 -768 576
WIRE -688 624 -688 576
WIRE -384 624 -384 592
WIRE -960 688 -960 672
WIRE 32 704 0 704
WIRE 64 704 32 704
WIRE 0 720 0 704
WIRE -864 736 -864 688
WIRE -768 736 -768 688
WIRE -688 736 -688 704
WIRE -128 736 -208 736
WIRE -80 736 -128 736
WIRE -208 752 -208 736
WIRE -512 768 -512 752
WIRE -448 768 -512 768
WIRE -384 768 -384 688
WIRE -384 768 -448 768
WIRE -960 800 -960 768
WIRE -448 800 -448 768
WIRE -80 800 -80 784
WIRE -208 848 -208 832
WIRE 32 848 0 848
WIRE 64 848 32 848
WIRE 0 864 0 848
WIRE -768 880 -768 864
WIRE -128 880 -128 736
WIRE -80 880 -128 880
WIRE -432 896 -432 880
WIRE -80 944 -80 928
WIRE 176 976 144 976
WIRE 208 976 176 976
WIRE -432 992 -432 976
WIRE -432 992 -496 992
WIRE -384 992 -432 992
WIRE -368 992 -384 992
WIRE 32 992 0 992
WIRE 64 992 32 992
WIRE 144 992 144 976
WIRE -496 1008 -496 992
WIRE 0 1008 0 992
WIRE -768 1024 -768 960
WIRE -128 1024 -128 880
WIRE -80 1024 -128 1024
WIRE -368 1040 -368 992
WIRE -80 1088 -80 1072
WIRE 144 1088 144 1072
WIRE -768 1104 -768 1088
WIRE -496 1104 -496 1088
WIRE -368 1120 -368 1088
WIRE -496 1264 -496 1248
WIRE -432 1264 -496 1264
WIRE -368 1264 -368 1184
WIRE -368 1264 -432 1264
WIRE -432 1296 -432 1264
FLAG -384 176 0
FLAG -480 176 0
FLAG -624 176 0
FLAG -896 272 0
FLAG -480 -96 B
FLAG -416 16 E
FLAG -896 -96 0
FLAG -448 800 0
FLAG -448 384 0
FLAG -864 736 0
FLAG -688 736 0
FLAG -768 736 0
FLAG -960 800 0
FLAG -736 576 xc
FLAG -912 576 xL
FLAG -400 496 XTAL
FLAG -208 848 0
FLAG -80 800 0
FLAG 0 800 0
FLAG -80 944 0
FLAG 0 944 0
FLAG 32 704 L_Zs
FLAG 32 848 L_Xcp
FLAG 144 1088 0
FLAG 176 976 z
FLAG -80 1088 0
FLAG 0 1088 0
FLAG 32 992 L_Zz
FLAG -432 1296 0
FLAG -432 880 0
FLAG -384 992 Zs
FLAG -768 864 0
FLAG -768 1104 0
SYMBOL EIT_Semiconductors\\npn -448 -144 R0
SYMATTR InstName Q1
SYMATTR Value 2N2222
SYMBOL res -400 32 R0
SYMATTR InstName R1
SYMATTR Value 2k2
SYMBOL res -640 -16 R0
SYMATTR InstName R2
SYMATTR Value 33k
SYMBOL cap -496 -80 R0
SYMATTR InstName C1
SYMATTR Value 180p
SYMBOL cap -496 48 R0
SYMATTR InstName C2
SYMATTR Value 120p
SYMBOL res -640 -240 R0
SYMATTR InstName R3
SYMATTR Value 100k
SYMBOL res -864 48 R0
SYMATTR InstName R4
SYMATTR Value {Rs}
SYMBOL cap -864 144 R0
SYMATTR InstName C3
SYMATTR Value {Cs}
SYMBOL cap -960 64 R0
SYMATTR InstName C4
SYMATTR Value {Cp}
SYMBOL ind -864 -32 R0
SYMATTR InstName L1
SYMATTR Value {Ls}
SYMBOL MDB_sym\\source-Vmarker -640 -272 R0
SYMATTR Value V=10V
SYMATTR InstName U1
SYMBOL MDB_sym\\source-I -448 480 R180
WINDOW 123 38 53 Left 2
WINDOW 39 0 0 Left 2
WINDOW 0 39 29 Left 2
SYMATTR Value2 AC 1
SYMATTR InstName I2
SYMATTR Value ""
SYMBOL res -496 592 M0
SYMATTR InstName R5
SYMATTR Value {Rs}
SYMBOL cap -496 688 M0
SYMATTR InstName C5
SYMATTR Value {Cs}
SYMBOL cap -400 624 R0
SYMATTR InstName C6
SYMATTR Value {Cp}
SYMBOL ind -496 496 M0
SYMATTR InstName L2
SYMATTR Value {Ls}
SYMBOL MDB_sym\\jumperSetable -384 576 R90
WINDOW 0 -7 -32 Invisible 2
SYMATTR InstName U5
SYMATTR Value cl={x}
SYMBOL cap -784 624 R0
SYMATTR InstName Cs
SYMATTR Value {Cs}
SYMATTR SpiceLine Rser=1
SYMBOL ind -976 672 R0
SYMATTR InstName Ls
SYMATTR Value {Ls}
SYMBOL MDB_sym\\source-I -864 608 R0
WINDOW 123 23 80 Left 2
WINDOW 39 0 0 Left 2
SYMATTR Value2 AC 1
SYMATTR InstName I5
SYMATTR Value ""
SYMBOL MDB_sym\\source-I -688 624 R0
WINDOW 123 23 80 Left 2
WINDOW 39 0 0 Left 2
SYMATTR Value2 AC 1
SYMATTR InstName I3
SYMATTR Value ""
SYMBOL res -976 576 R0
SYMATTR InstName R6
SYMATTR Value {Rs}
SYMBOL crtl-V-V 0 704 R0
WINDOW 3 29 53 Left 2
SYMATTR Value laplace=Rs+s*Ls+1/(s*Cs)
SYMATTR InstName E1
SYMBOL MDB_sym\\source-V -208 736 R0
WINDOW 123 28 107 Left 2
WINDOW 39 0 0 Left 2
SYMATTR Value2 AC 1
SYMATTR InstName V1
SYMATTR Value 0
SYMBOL crtl-V-V 0 848 R0
WINDOW 3 27 53 Left 2
SYMATTR Value laplace=1/(s*Cp)
SYMATTR InstName E2
SYMBOL bv 144 976 R0
WINDOW 0 35 38 Left 2
WINDOW 3 36 62 Left 2
SYMATTR InstName B1
SYMATTR Value V=V(L_Zs)+V(L_Xcp)
SYMBOL crtl-V-V 0 992 R0
WINDOW 3 -305 139 Left 2
SYMATTR Value laplace=( 1/(s*Cp) )*( Rs+s*Ls+1/(s*Cs) )/( 1/(s*Cp) + Rs+s*Ls+1/(s*Cs) )
SYMATTR InstName E3
SYMBOL MDB_sym\\source-I -432 976 R180
WINDOW 123 38 53 Left 2
WINDOW 39 0 0 Left 2
WINDOW 0 39 29 Left 2
SYMATTR Value2 AC 1
SYMATTR InstName I6
SYMATTR Value ""
SYMBOL res -480 1088 M0
SYMATTR InstName R7
SYMATTR Value {Rs}
SYMBOL cap -480 1184 M0
SYMATTR InstName C7
SYMATTR Value {Cs}
SYMBOL cap -384 1120 R0
SYMATTR InstName C8
SYMATTR Value {Cp}
SYMBOL ind -480 992 M0
SYMATTR InstName L3
SYMATTR Value {Ls}
SYMBOL MDB_sym\\jumperSetable -368 1072 R90
WINDOW 0 -7 -32 Invisible 2
SYMATTR InstName U6
SYMATTR Value cl={1-x}
SYMBOL MDB_sym\\source-I -768 960 R180
WINDOW 123 38 53 Left 2
WINDOW 39 0 0 Left 2
WINDOW 0 39 29 Left 2
SYMATTR Value2 AC 1
SYMATTR InstName I1
SYMATTR Value ""
SYMBOL MDB_hierachical\\crysOscMdb -768 1056 R0
SYMATTR InstName X2
TEXT -168 -296 Left 2 ;.options plotwinsize=0\n .param PierceOscill=1\n+ C = 40n\n+ L = {1/(4*pi**2*f0**2*C)}\n+ Q = 50000\n+ Rp = {Q/(2*pi*f0*C)}\n+ A = 1.5
TEXT -136 0 Left 2 ;.tran 0 {2*29k*1/8.842Meg} 0 2e-9
TEXT -136 48 Left 2 !.ac oct 10000 1e6 100e6
TEXT -952 -272 Left 2 ;.param Crystal=1\n+ Rs = 23\n+ Cs = 27f\n+ Ls = 12mH\n+ Cp = 6p\n+ f0 = 1meg
TEXT -304 256 Left 2 ;.param SapS49=1\n+ Rs = 1\n+ Cs = 98.9p\n+ Ls = 1u\n+ Cp = 2n\n+ fp = 16Meg\n+ fs = 16meg\n+ f0 = {fs}
TEXT -264 632 Left 2 !.param x = 1\n;.step param x list 1 0
TEXT -64 1224 Left 2 !.param SapS49=1\n+ Rs = 1\n+ Cs = 980.9p\n+ Ls = 1u\n+ Cp = 2n\n+ fp = 16Meg\n+ fs = 16meg\n+ f0 = {fs}
TEXT 288 376 Left 2 ;.param SapS49=1\n+ Rs = 1\n+ Cs = 98.9p\n+ Ls = 1u\n+ Cp = 2n\n+ fp = 16Meg\n+ fs = 16meg\n+ f0 = {fs}
TEXT -936 1312 Left 2 !.SUBCKT B32K130 1 2 PARAMS: TOL=0
