Version 4
SHEET 1 1300 1272
WIRE -272 -512 -288 -512
WIRE -144 -512 -272 -512
WIRE -16 -512 -144 -512
WIRE -16 -496 -16 -512
WIRE -272 -480 -272 -512
WIRE -512 -416 -512 -448
WIRE -400 -416 -512 -416
WIRE -512 -400 -512 -416
WIRE -512 -400 -560 -400
WIRE -464 -400 -512 -400
WIRE -16 -384 -16 -416
WIRE 0 -384 -16 -384
WIRE 112 -384 0 -384
WIRE 144 -384 112 -384
WIRE 240 -384 208 -384
WIRE -464 -368 -464 -400
WIRE -16 -352 -16 -384
WIRE 240 -336 240 -384
WIRE 112 -320 112 -384
WIRE -80 -304 -176 -304
WIRE -560 -288 -560 -400
WIRE -64 -224 -96 -224
WIRE -16 -224 -16 -256
WIRE -16 -224 -64 -224
WIRE 112 -224 112 -256
WIRE 240 -224 240 -256
WIRE -272 -208 -272 -400
WIRE -176 -192 -176 -304
WIRE -96 -192 -96 -224
WIRE -16 -192 -16 -224
WIRE -560 -128 -560 -224
WIRE -512 -128 -560 -128
WIRE -464 -128 -464 -144
WIRE -464 -128 -512 -128
WIRE -512 -96 -512 -128
WIRE -432 -96 -512 -96
WIRE -512 -80 -512 -96
WIRE -272 -64 -272 -128
WIRE -176 -64 -176 -128
WIRE -96 -64 -96 -128
WIRE -16 -64 -16 -112
FLAG -16 -64 0
FLAG -176 -64 0
FLAG -272 -64 0
FLAG -176 -304 B
FLAG -64 -224 E
FLAG -512 -448 XTAL1
FLAG -512 -80 XTAL2
FLAG -96 -64 0
FLAG 0 -384 C
FLAG 112 -224 0
FLAG 240 -224 0
FLAG -144 -512 +10V
FLAG -400 -416 C
FLAG -432 -96 B
FLAG 240 -384 out
DATAFLAG 112 -384 "round(V(rnd1)*$)/V(rnd1)"
DATAFLAG -16 -224 "round(V(rnd1)*$)/V(rnd1)"
SYMBOL EIT_Semiconductors\\npn -80 -352 R0
WINDOW 3 59 55 Left 2
SYMATTR Value 2N2222
SYMATTR InstName Q1
SYMBOL res -32 -208 R0
SYMATTR InstName R1
SYMATTR Value {Re}
SYMBOL res -288 -224 R0
SYMATTR InstName R2
SYMATTR Value {R2}
SYMBOL cap -192 -192 R0
SYMATTR InstName C1
SYMATTR Value {Ca}
SYMBOL res -288 -496 R0
SYMATTR InstName R3
SYMATTR Value {R1}
SYMBOL res -480 -304 R0
SYMATTR InstName R4
SYMATTR Value {Rs}
SYMBOL cap -480 -208 R0
SYMATTR InstName C2
SYMATTR Value {Cs}
SYMBOL cap -576 -288 R0
SYMATTR InstName C3
SYMATTR Value {Cp}
SYMBOL ind -480 -384 R0
SYMATTR InstName L1
SYMATTR Value {Ls}
SYMBOL MDB_sym\\source-Vmarker -288 -512 R0
SYMATTR Value V={Vcc}
SYMATTR InstName U1
SYMBOL res -32 -512 R0
SYMATTR InstName R5
SYMATTR Value {Rc}
SYMBOL cap -112 -192 R0
SYMATTR InstName C4
SYMATTR Value 10n
SYMBOL cap 144 -368 R270
WINDOW 0 32 32 VTop 2
WINDOW 3 0 32 VBottom 2
SYMATTR InstName C5
SYMATTR Value 10nF
SYMBOL cap 96 -320 R0
SYMATTR InstName C6
SYMATTR Value {Cb}
SYMBOL res 224 -352 R0
SYMATTR InstName RL1
SYMATTR Value 500k
SYMBOL MDB_sym\\source-V -992 -256 R0
SYMATTR InstName V1
TEXT -760 16 Left 2 ;http://www.axtal.com/cms/iwebs/download.aspx?id=87532
TEXT -64 128 Left 2 !.param dimensionierung=1\n+ Rc = {Vc0/Ic0}\n+ Re = {Ve0/(Ic0/alpha)}\n; ---- wegen \n+ Vb_=Vbe0+Ic0/alpha*Re\n; ---- ist für Rb = VRb/(Ic/beta)\n+ Rb = 10k\n+ Vb=3.2V\n+ R1 = {(5/4*Vcc+Vbe0)*beta/(10*Ic0)}\n+ R2 = {(Vbe0+.25*Vcc)/(9*Ic0/beta)}\n+ Ca = 10p\n+ Cb = 22p
TEXT -816 -400 Left 2 !.options plotwinsize=0\n.param PierceOscill=1\n+ Rs = 23\n+ Cs = 27e-15\n+ Ls = 12mH\n+ Cp = 6p\n+ f0 = 1meg\n+ C = 40n\n+ L = {1/(4*pi**2*f0**2*C)}\n+ Q = 5000\n+ Rp = {Q/(2*pi*f0*C)}\n+ A = 1.5
TEXT -736 -648 Left 2 ;.model 2N2222 NPN(IS=1E-14 VAF=100 BF=200 IKF=0.3 XTB=1.5 BR=3 CJC=8E-12 \nCJE=25E-12 TR=100E-9 TF=400E-12 ITF=1 VTF=2 XTF=3 RB=10 RC=.3 RE=.2 Vceo=30 Icrating=800m mfg=Philips)
TEXT 88 -176 Left 2 !.param Vorgaben=1\n+ beta = 200\n+ alpha = {beta/(beta +1)}\n+ Vt = 26m\n+ Vbe0 = .65V\n+ Ic0 = 3mA\n+ Vcc = 10V\n; -----------\n+ Ve0 = {Vcc/4}\n+ Vc0 = {Vcc/2}
TEXT -696 88 Left 2 !.model npnx npn ( Is={Ic0/exp(Vbe0/Vt)} Bf=200)
TEXT -818 434 Left 2 !;tran 10m
TEXT -704 152 Left 2 !.tran 0 {2*29k*1/8.842Meg} 0 2e-9
