Version 4
SHEET 1 880 680
WIRE -688 -1600 -944 -1600
WIRE -640 -1600 -688 -1600
WIRE -688 -1584 -688 -1600
WIRE -816 -1440 -848 -1440
WIRE -688 -1440 -688 -1504
WIRE -688 -1440 -736 -1440
WIRE -560 -1440 -688 -1440
WIRE -560 -1408 -560 -1440
WIRE -688 -1376 -688 -1440
WIRE -848 -1328 -848 -1440
WIRE -1200 -1280 -1200 -1328
WIRE -1200 -1280 -1248 -1280
WIRE -1152 -1280 -1200 -1280
WIRE -1152 -1248 -1152 -1280
WIRE -560 -1184 -560 -1328
WIRE -1248 -1168 -1248 -1280
WIRE -688 -1056 -688 -1280
WIRE -560 -1056 -560 -1120
WIRE -1248 -1008 -1248 -1104
WIRE -1200 -1008 -1248 -1008
WIRE -1152 -1008 -1152 -1024
WIRE -1152 -1008 -1200 -1008
WIRE -1200 -960 -1200 -1008
WIRE -752 -832 -752 -848
WIRE -752 -736 -752 -752
WIRE -752 -736 -816 -736
WIRE -704 -736 -752 -736
WIRE -688 -736 -704 -736
WIRE -816 -720 -816 -736
WIRE -1296 -688 -1344 -688
WIRE -1248 -688 -1296 -688
WIRE -1104 -688 -1136 -688
WIRE -1056 -688 -1104 -688
WIRE -688 -688 -688 -736
WIRE -1344 -672 -1344 -688
WIRE -1248 -640 -1248 -688
WIRE -1056 -640 -1056 -688
WIRE -1136 -624 -1136 -688
WIRE -816 -624 -816 -640
WIRE -688 -608 -688 -640
WIRE -1344 -576 -1344 -592
WIRE -272 -528 -304 -528
WIRE -240 -528 -272 -528
WIRE -304 -512 -304 -528
WIRE -432 -496 -512 -496
WIRE -384 -496 -432 -496
WIRE -1344 -480 -1344 -496
WIRE -1248 -480 -1248 -560
WIRE -1136 -480 -1136 -560
WIRE -1056 -480 -1056 -560
WIRE -512 -480 -512 -496
WIRE -816 -464 -816 -480
WIRE -752 -464 -816 -464
WIRE -688 -464 -688 -544
WIRE -688 -464 -752 -464
WIRE -752 -432 -752 -464
WIRE -384 -432 -384 -448
WIRE -512 -384 -512 -400
WIRE -272 -384 -304 -384
WIRE -240 -384 -272 -384
WIRE -304 -368 -304 -384
WIRE -1072 -352 -1072 -368
WIRE -432 -352 -432 -496
WIRE -384 -352 -432 -352
WIRE -736 -336 -736 -352
WIRE -384 -288 -384 -304
WIRE -128 -256 -160 -256
WIRE -96 -256 -128 -256
WIRE -1152 -240 -1200 -240
WIRE -1072 -240 -1072 -272
WIRE -1040 -240 -1072 -240
WIRE -736 -240 -736 -256
WIRE -736 -240 -800 -240
WIRE -688 -240 -736 -240
WIRE -672 -240 -688 -240
WIRE -272 -240 -304 -240
WIRE -240 -240 -272 -240
WIRE -160 -240 -160 -256
WIRE -800 -224 -800 -240
WIRE -304 -224 -304 -240
WIRE -1168 -208 -1200 -208
WIRE -1152 -208 -1152 -240
WIRE -1136 -208 -1152 -208
WIRE -1072 -208 -1072 -240
WIRE -432 -208 -432 -352
WIRE -384 -208 -432 -208
WIRE -1168 -192 -1168 -208
WIRE -1136 -192 -1168 -192
WIRE -672 -192 -672 -240
WIRE -1136 -176 -1200 -176
WIRE -1136 -160 -1168 -160
WIRE -1168 -144 -1168 -160
WIRE -1168 -144 -1200 -144
WIRE -1136 -144 -1152 -144
WIRE -384 -144 -384 -160
WIRE -160 -144 -160 -160
WIRE -1072 -128 -1072 -144
WIRE -800 -128 -800 -144
WIRE -1152 -112 -1152 -144
WIRE -1152 -112 -1200 -112
WIRE -672 -112 -672 -144
WIRE -800 32 -800 16
WIRE -736 32 -800 32
WIRE -672 32 -672 -48
WIRE -672 32 -736 32
WIRE -736 64 -736 32
FLAG -688 -1056 0
FLAG -1200 -960 0
FLAG -1200 -1328 0
FLAG -752 -432 0
FLAG -752 -848 0
FLAG -1248 -480 0
FLAG -1056 -480 0
FLAG -1136 -480 0
FLAG -1344 -480 0
FLAG -1104 -688 xc
FLAG -1296 -688 xL
FLAG -704 -736 XTAL
FLAG -512 -384 0
FLAG -384 -432 0
FLAG -304 -432 0
FLAG -384 -288 0
FLAG -304 -288 0
FLAG -272 -528 L_Zs
FLAG -272 -384 L_Xcp
FLAG -160 -144 0
FLAG -128 -256 L_z
FLAG -384 -144 0
FLAG -304 -144 0
FLAG -272 -240 L_Zz
FLAG -736 64 0
FLAG -736 -352 0
FLAG -688 -240 Zs
FLAG -1072 -368 0
FLAG -1072 -128 0
FLAG -1040 -240 Z
FLAG -560 -1056 0
DATAFLAG -1200 -144 ""
DATAFLAG -1200 -208 ""
DATAFLAG -1200 -176 ""
DATAFLAG -1200 -240 ""
DATAFLAG -1200 -112 ""
SYMBOL EIT_Semiconductors\\npn -752 -1376 R0
SYMATTR InstName Q1
SYMATTR Value 2N2222
SYMBOL res -720 -1456 R90
WINDOW 0 7 56 VBottom 2
WINDOW 3 25 56 VTop 2
SYMATTR InstName R3
SYMATTR Value {Ra}
SYMBOL res -1168 -1184 R0
SYMATTR InstName R4
SYMATTR Value {Rs}
SYMBOL cap -1168 -1088 R0
SYMATTR InstName C3
SYMATTR Value {Cs}
SYMBOL cap -1264 -1168 R0
SYMATTR InstName C4
SYMATTR Value {Cp}
SYMBOL ind -1168 -1264 R0
SYMATTR InstName L1
SYMATTR Value {Ls}
SYMBOL MDB_sym\\source-Vmarker -944 -1600 R0
SYMATTR Value V=10V
SYMATTR InstName U1
SYMBOL MDB_sym\\source-I -752 -752 R180
WINDOW 123 38 53 Left 2
WINDOW 39 0 0 Left 2
WINDOW 0 39 29 Left 2
SYMATTR Value2 AC 1
SYMATTR InstName I1
SYMATTR Value ""
SYMBOL res -800 -640 M0
SYMATTR InstName R5
SYMATTR Value {Rs}
SYMBOL cap -800 -544 M0
SYMATTR InstName C5
SYMATTR Value {Cs}
SYMBOL cap -704 -608 R0
SYMATTR InstName C6
SYMATTR Value {Cp}
SYMBOL ind -800 -736 M0
SYMATTR InstName L2
SYMATTR Value {Ls}
SYMBOL MDB_sym\\jumperSetable -688 -656 R90
WINDOW 0 -7 -32 Invisible 2
SYMATTR InstName U2
SYMATTR Value cl={x}
SYMBOL cap -1152 -624 R0
SYMATTR InstName Cs1
SYMATTR Value {Cs}
SYMATTR SpiceLine Rser=1
SYMBOL ind -1360 -592 R0
SYMATTR InstName Ls1
SYMATTR Value {Ls}
SYMBOL MDB_sym\\source-I -1248 -640 R0
WINDOW 123 23 80 Left 2
WINDOW 39 0 0 Left 2
SYMATTR Value2 AC 1
SYMATTR InstName I2
SYMATTR Value ""
SYMBOL MDB_sym\\source-I -1056 -640 R0
WINDOW 123 23 80 Left 2
WINDOW 39 0 0 Left 2
SYMATTR Value2 AC 1
SYMATTR InstName I3
SYMATTR Value ""
SYMBOL res -1360 -688 R0
SYMATTR InstName R6
SYMATTR Value {Rs}
SYMBOL crtl-V-V -304 -528 R0
WINDOW 3 29 53 Left 2
SYMATTR Value laplace=Rs+s*Ls+1/(s*Cs)
SYMATTR InstName E1
SYMBOL MDB_sym\\source-V -512 -496 R0
WINDOW 123 28 107 Left 2
WINDOW 39 0 0 Left 2
SYMATTR Value2 AC 1
SYMATTR InstName V1
SYMATTR Value 0
SYMBOL crtl-V-V -304 -384 R0
WINDOW 3 27 53 Left 2
SYMATTR Value laplace=1/(s*Cp)
SYMATTR InstName E2
SYMBOL bv -160 -256 R0
WINDOW 0 35 38 Left 2
WINDOW 3 36 62 Left 2
SYMATTR InstName B1
SYMATTR Value V=V(L_Zs)+V(L_Xcp)
SYMBOL crtl-V-V -304 -240 R0
WINDOW 3 -257 148 Left 2
SYMATTR Value laplace=( 1/(s*Cp) )*( Rs+s*Ls+1/(s*Cs) )/( 1/(s*Cp) + Rs+s*Ls+1/(s*Cs) )
SYMATTR InstName E3
SYMBOL MDB_sym\\source-I -736 -256 R180
WINDOW 123 38 53 Left 2
WINDOW 39 0 0 Left 2
WINDOW 0 39 29 Left 2
SYMATTR Value2 AC 1
SYMATTR InstName I4
SYMATTR Value ""
SYMBOL res -784 -144 M0
SYMATTR InstName R7
SYMATTR Value {Rs}
SYMBOL cap -784 -48 M0
SYMATTR InstName C7
SYMATTR Value {Cs}
SYMBOL cap -688 -112 R0
SYMATTR InstName C8
SYMATTR Value {Cp}
SYMBOL ind -784 -240 M0
SYMATTR InstName L3
SYMATTR Value {Ls}
SYMBOL MDB_sym\\jumperSetable -672 -160 R90
WINDOW 0 -7 -32 Invisible 2
SYMATTR InstName U3
SYMATTR Value cl={1-x}
SYMBOL MDB_sym\\source-I -1072 -272 R180
WINDOW 123 38 53 Left 2
WINDOW 39 0 0 Left 2
WINDOW 0 39 29 Left 2
SYMATTR Value2 AC 1
SYMATTR InstName I5
SYMATTR Value ""
SYMBOL MDB_hierachical\\crysOscMdb -1072 -176 R0
WINDOW 39 -88 96 Left 2
SYMATTR SpiceLine fs={fs_}  fp={fs_+500k}
SYMATTR InstName X1
SYMBOL res -704 -1600 R0
SYMATTR InstName R8
SYMATTR Value {Rc}
SYMBOL cap -864 -1232 R0
SYMATTR InstName C1
SYMATTR Value {C1}
SYMBOL cap -576 -1184 R0
SYMATTR InstName C2
SYMATTR Value {C2}
SYMBOL res -576 -1424 R0
SYMATTR InstName R1
SYMATTR Value {Rb}
TEXT -472 -1528 Left 2 ;.options plotwinsize=0\n .param PierceOscill=1\n+ C = 40n\n+ L = {1/(4*pi**2*f0**2*C)}\n+ Q = 50000\n+ Rp = {Q/(2*pi*f0*C)}\n+ A = 1.5
TEXT -472 -1328 Left 2 ;.tran 0 {2*29k*1/8.842Meg} 0 2e-9
TEXT -472 -1296 Left 2 !.ac oct 10000 1e6 100e6
TEXT -1256 -1504 Left 2 ;.param Crystal=1\n+ Rs = 23\n+ Cs = 27f\n+ Ls = 12mH\n+ Cp = 6p\n+ f0 = 1meg
TEXT -472 -1240 Left 2 ;.param SapS49=1\n+ Rs = 1\n+ Cs = 98.9p\n+ Ls = 1u\n+ Cp = 2n\n+ fp = 16Meg\n+ fs = 16meg\n+ f0 = {fs}
TEXT -568 -600 Left 2 !.param x = 1\n;.step param x list 1 0
TEXT -368 -8 Left 2 ;.param SapS49=1\n+ Rs = 1\n+ Cs = 980.9p\n+ Ls = 1u\n+ Cp = 2n\n+ fs = 9Meg\n+ f0 = {fs}
TEXT -280 -1240 Left 2 ;.param SapS49=1\n+ Rs = 1\n+ Cs = 98.9p\n+ Ls = 1u\n+ Cp = 2n\n+ fp = 16Meg\n+ fs = 16meg\n+ f0 = {fs}
TEXT -1296 -16 Left 2 ;.step param fs_ 13.1meg 18meg 1meg
TEXT -128 -8 Left 2 !.param microchip=1\n+ Rs = 30\n+ Cs = 0.018p\n+ Cp = 4.5p\n+ Ls = 22mH\n+ fs = {1/(2*pi*sqrt(Ls*Cs))}
TEXT -1200 16 Left 2 !.param fs_ = {fs}
TEXT -1216 -1728 Left 2 ;http://www.rakon.com/component/docman/doc_download/234-single-transistor-crystal-oscillator-circuits?Itemid=
