Version 4
SHEET 1 1216 680
WIRE 176 16 160 16
WIRE 256 16 240 16
WIRE 64 96 -128 96
WIRE 160 96 160 16
WIRE 160 96 144 96
WIRE 176 96 160 96
WIRE 256 112 256 16
WIRE 256 112 240 112
WIRE 176 128 160 128
WIRE -128 176 -128 96
WIRE 160 176 160 128
WIRE -128 288 -128 256
FLAG -128 288 0
FLAG 160 176 0
SYMBOL source-V -128 160 R0
SYMATTR InstName V1
SYMATTR Value 1
SYMBOL EIT_Semiconductors\\op_3 208 112 R0
SYMATTR InstName U1
SYMBOL diode 176 32 R270
WINDOW 0 32 32 VTop 0
WINDOW 3 0 32 VBottom 0
SYMATTR InstName D1
SYMATTR Value Dx
SYMBOL res 48 112 R270
WINDOW 0 25 56 VTop 0
WINDOW 3 7 56 VBottom 0
SYMATTR InstName R1
SYMATTR Value 10k
SYMBOL Opamps\\LT1079 1104 -16 R0
SYMATTR InstName U2
SYMBOL Opamps\\LT1079 -16 64 R0
SYMATTR InstName U3
TEXT -156 312 Left 0 !.tran 1
TEXT 328 0 Left 0 !.model dx D(IS=1.e-14)
