Version 4
SHEET 1 880 680
SYMBOL MDB_sym\\LM3886_MV2L 144 144 R0
SYMATTR InstName X1
