*version 8.0 2972589041
u 498
Ub? 2
T? 10
R? 2
C? 3
U? 2
@libraries
@analysis
.AC 1 3 0
+0 50
+1 1e3
+2 1e9
.TRAN 1 0 0 0
+0 100u
+1 100u
+2 0
+3 10n
.PROBE 0 0 1 1 0 0
@targets
@attributes
@translators
a 0 u 13 0 0 0 hln 100 TANGO=PCB
a 0 u 13 0 0 0 hln 100 SCICARDS=PCB
a 0 u 13 0 0 0 hln 100 PROTEL=PCB
a 0 u 13 0 0 0 hln 100 PCBOARDS=PCB
a 0 u 13 0 0 0 hln 100 PCAD=PCB
a 0 u 13 0 0 0 hln 100 PADS=PCB
a 0 u 13 0 0 0 hln 100 ORCAD=PCB
a 0 u 13 0 0 0 hln 100 EDIF=PCB
a 0 u 13 0 0 0 hln 100 CADSTAR=PCB
a 0 u 13 0 0 0 hln 100 PSPICE=PSPICE
a 0 u 13 0 0 0 hln 100 XILINX=XILINX
@setup
unconnectedPins 0
connectViaLabel 0
connectViaLocalLabels 0
NoStim4ExtIFPortsWarnings 1
AutoGenStim4ExtIFPorts 1
@index
pageloc 1 0 11153 
@status
n 0 88:00:22:21:15:52;569880952 e 
s 2832 88:00:22:21:15:53;569880953 e 
*page 1 0 970 720 iA
@ports
port 184 GND 50 250 h
port 12 GND 280 250 h
port 58 GND 420 250 h
port 81 GND 560 250 h
port 104 GND 700 250 h
port 159 GND 200 250 h
port 170 GND 340 250 h
port 304 GND 110 250 h
@parts
part 54 N1 370 180 h
a 0 sp 0 0 25 28 hln 100 PART=N1
a 0 s 0:13 0 0 0 hln 100 PKGTYPE=
a 0 u 0 0 0 10 hln 100 SUB=0
a 0 a 0:13 0 0 0 hln 100 PKGREF=T3
a 1 ap 9 0 25 19 hln 100 REFDES=T3
part 77 N1 510 180 h
a 0 sp 0 0 25 28 hln 100 PART=N1
a 0 s 0:13 0 0 0 hln 100 PKGTYPE=
a 0 u 0 0 0 10 hln 100 SUB=0
a 0 a 0:13 0 0 0 hln 100 PKGREF=T5
a 1 ap 9 0 25 19 hln 100 REFDES=T5
part 100 N1 650 180 h
a 0 sp 0 0 25 28 hln 100 PART=N1
a 0 s 0:13 0 0 0 hln 100 PKGTYPE=
a 0 u 0 0 0 10 hln 100 SUB=0
a 0 a 0:13 0 0 0 hln 100 PKGREF=T7
a 1 ap 9 0 25 19 hln 100 REFDES=T7
part 101 N1 750 180 H
a 0 sp 0 0 25 28 hln 100 PART=N1
a 0 s 0:13 0 0 0 hln 100 PKGTYPE=
a 0 u 0 0 0 10 hln 100 SUB=0
a 0 a 0:13 0 0 0 hln 100 PKGREF=T8
a 1 ap 9 0 25 19 hln 100 REFDES=T8
part 55 N1 470 180 H
a 0 sp 0 0 25 28 hln 100 PART=N1
a 0 s 0:13 0 0 0 hln 100 PKGTYPE=
a 0 u 0 0 0 10 hln 100 SUB=0
a 0 a 0:13 0 0 0 hln 100 PKGREF=T4
a 1 ap 9 0 25 19 hln 100 REFDES=T4
part 158 R 200 210 h
a 0 u 13 0 17 29 hln 100 VALUE=100k
a 0 sp 0 0 0 10 hlb 100 PART=R
a 0 s 0:13 0 0 0 hln 100 PKGTYPE=
a 0 x 0:13 0 0 0 hln 100 PKGREF=Rb2
a 1 xp 9 0 17 18 hln 100 REFDES=Rb2
part 15 R 250 70 h
a 0 u 13 0 17 29 hln 100 VALUE=2k
a 0 sp 0 0 0 10 hlb 100 PART=R
a 0 s 0:13 0 0 0 hln 100 PKGTYPE=
a 0 x 0:13 0 0 0 hln 100 PKGREF=R1
a 1 xp 9 0 17 18 hln 100 REFDES=R1
part 22 R 310 70 h
a 0 u 13 0 17 29 hln 100 VALUE=2k
a 0 sp 0 0 0 10 hlb 100 PART=R
a 0 s 0:13 0 0 0 hln 100 PKGTYPE=
a 0 x 0:13 0 0 0 hln 100 PKGREF=R2
a 1 xp 9 0 17 18 hln 100 REFDES=R2
part 57 R 390 70 h
a 0 u 13 0 17 29 hln 100 VALUE=2k
a 0 sp 0 0 0 10 hlb 100 PART=R
a 0 s 0:13 0 0 0 hln 100 PKGTYPE=
a 0 x 0:13 0 0 0 hln 100 PKGREF=R3
a 1 xp 9 0 17 18 hln 100 REFDES=R3
part 56 R 450 70 h
a 0 u 13 0 17 29 hln 100 VALUE=2k
a 0 sp 0 0 0 10 hlb 100 PART=R
a 0 s 0:13 0 0 0 hln 100 PKGTYPE=
a 0 x 0:13 0 0 0 hln 100 PKGREF=R4
a 1 xp 9 0 17 18 hln 100 REFDES=R4
part 80 R 530 70 h
a 0 u 13 0 17 29 hln 100 VALUE=2k
a 0 sp 0 0 0 10 hlb 100 PART=R
a 0 s 0:13 0 0 0 hln 100 PKGTYPE=
a 0 x 0:13 0 0 0 hln 100 PKGREF=R5
a 1 xp 9 0 17 18 hln 100 REFDES=R5
part 103 R 670 70 h
a 0 u 13 0 17 29 hln 100 VALUE=2k
a 0 sp 0 0 0 10 hlb 100 PART=R
a 0 s 0:13 0 0 0 hln 100 PKGTYPE=
a 0 x 0:13 0 0 0 hln 100 PKGREF=R7
a 1 xp 9 0 17 18 hln 100 REFDES=R7
part 102 R 730 70 h
a 0 u 13 0 17 29 hln 100 VALUE=2k
a 0 sp 0 0 0 10 hlb 100 PART=R
a 0 s 0:13 0 0 0 hln 100 PKGTYPE=
a 0 x 0:13 0 0 0 hln 100 PKGREF=R8
a 1 xp 9 0 17 18 hln 100 REFDES=R8
part 7 R 280 210 h
a 0 u 13 0 17 29 hln 100 VALUE=4k
a 0 sp 0 0 0 10 hlb 100 PART=R
a 0 s 0:13 0 0 0 hln 100 PKGTYPE=
a 0 x 0:13 0 0 0 hln 100 PKGREF=RE1
a 1 xp 9 0 17 18 hln 100 REFDES=RE1
part 53 R 420 210 h
a 0 u 13 0 17 29 hln 100 VALUE=4k
a 0 x 0:13 0 0 0 hln 100 PKGREF=RE2
a 1 xp 9 0 17 18 hln 100 REFDES=RE2
a 0 sp 0 0 0 10 hlb 100 PART=R
a 0 s 0:13 0 0 0 hln 100 PKGTYPE=
part 76 R 560 210 h
a 0 u 13 0 17 29 hln 100 VALUE=4k
a 0 x 0:13 0 0 0 hln 100 PKGREF=RE3
a 1 xp 9 0 17 18 hln 100 REFDES=RE3
a 0 sp 0 0 0 10 hlb 100 PART=R
a 0 s 0:13 0 0 0 hln 100 PKGTYPE=
part 99 R 700 210 h
a 0 u 13 0 17 29 hln 100 VALUE=4k
a 0 x 0:13 0 0 0 hln 100 PKGREF=RE4
a 1 xp 9 0 17 18 hln 100 REFDES=RE4
a 0 sp 0 0 0 10 hlb 100 PART=R
a 0 s 0:13 0 0 0 hln 100 PKGTYPE=
part 227 C 160 180 v
a 0 sp 0 0 0 10 hlb 100 PART=C
a 0 s 0:13 0 0 0 hln 100 PKGTYPE=
a 0 u 13 0 -9 31 hln 100 VALUE=100n
a 0 x 0:13 0 0 0 hln 100 PKGREF=C1
a 1 xp 9 0 17 28 hln 100 REFDES=C1
part 305 R 120 180 v
a 1 xp 9 0 19 30 hln 100 REFDES=Rg
a 0 sp 0 0 0 10 hlb 100 PART=R
a 0 s 0:13 0 0 0 hln 100 PKGTYPE=
a 0 x 0:13 0 0 0 hln 100 PKGREF=Rg
a 0 u 13 0 -7 27 hln 100 VALUE=50
part 303 U 110 210 h
a 1 u 0 0 0 0 hcn 100 AC=1V
a 0 sp 0:11 0 0 50 hln 100 PART=U
a 0 s 0:13 0 0 0 hln 100 PKGTYPE=
a 0 x 0:13 0 0 0 hln 100 PKGREF=Ug
a 1 xp 9 0 -2 22 hrn 100 REFDES=Ug
a 1 u 0 0 0 0 hcn 100 TRAN=sin(0V 10uV 1MegaHz 0 -0.921e5)
part 157 R 200 70 h
a 0 u 13 0 17 29 hln 100 VALUE=12k
a 0 sp 0 0 0 10 hlb 100 PART=R
a 0 s 0:13 0 0 0 hln 100 PKGTYPE=
a 0 x 0:13 0 0 0 hln 100 PKGREF=Rb1
a 1 xp 9 0 17 18 hln 100 REFDES=Rb1
part 78 N1 610 180 H
a 0 sp 0 0 25 28 hln 100 PART=N1
a 0 s 0:13 0 0 0 hln 100 PKGTYPE=
a 0 u 0 0 0 10 hln 100 SUB=0
a 0 a 0:13 0 0 0 hln 100 PKGREF=T6
a 1 ap 9 0 25 19 hln 100 REFDES=T6
part 79 R 590 70 h
a 0 u 13 0 17 29 hln 100 VALUE=2k
a 0 sp 0 0 0 10 hlb 100 PART=R
a 0 s 0:13 0 0 0 hln 100 PKGTYPE=
a 0 x 0:13 0 0 0 hln 100 PKGREF=R6
a 1 xp 9 0 17 18 hln 100 REFDES=R6
part 3 N1 230 180 h
a 0 sp 0 0 25 28 hln 100 PART=N1
a 0 s 0:13 0 0 0 hln 100 PKGTYPE=
a 0 a 0:13 0 0 0 hln 100 PKGREF=T1
a 1 ap 9 0 25 19 hln 100 REFDES=T1
a 0 u 0 0 0 10 hln 100 SUB=0
part 169 C 340 210 h
a 0 x 0:13 0 0 0 hln 100 PKGREF=CGl
a 1 xp 9 0 17 18 hln 100 REFDES=CGl
a 0 sp 0 0 0 10 hlb 100 PART=C
a 0 s 0:13 0 0 0 hln 100 PKGTYPE=
a 0 u 13 0 17 29 hln 100 VALUE=100n
part 4 N1 330 180 H
a 0 sp 0 0 25 28 hln 100 PART=N1
a 0 s 0:13 0 0 0 hln 100 PKGTYPE=
a 0 u 0 0 0 10 hln 100 SUB=0
a 0 a 0:13 0 0 0 hln 100 PKGREF=T2
a 1 ap 9 0 25 19 hln 100 REFDES=T2
part 212 R 470 30 v
a 0 u 13 0 -5 29 hln 100 VALUE=4k
a 0 x 0:13 0 0 0 hln 100 PKGREF=RGl
a 1 xp 9 0 17 30 hln 100 REFDES=RGl
a 0 sp 0 0 0 10 hlb 100 PART=R
a 0 s 0:13 0 0 0 hln 100 PKGTYPE=
part 2 Ub 50 210 h
a 0 x 0:13 0 0 0 hln 100 PKGREF=Ub
a 1 xp 9 0 0 18 hrn 100 REFDES=Ub
a 0 sp 0:11 0 0 50 hln 100 PART=Ub
a 0 s 0:13 0 0 0 hln 100 PKGTYPE=
a 1 u 13 0 -2 28 hrn 100 DC=1.5V
part 1 titleblk 970 720 h
a 1 s 13 0 350 10 hcn 100 PAGESIZE=A
a 1 s 13 0 180 60 hcn 100 PAGETITLE=
a 1 s 13 0 340 95 hrn 100 PAGECOUNT=1
a 1 s 13 0 300 95 hrn 100 PAGENO=1
@conn
w 210
a 0 up 0:33 0 0 0 hln 100 V=
s 670 120 640 120 420
s 670 120 670 160 422
s 510 30 640 30 213
a 0 up 33 0 575 29 hct 100 V=
s 640 30 640 120 179
s 670 110 670 120 246
w 221
a 0 up 0:33 0 0 0 hln 100 V=
s 340 180 340 30 418
s 340 180 330 180 173
s 340 210 340 180 171
s 340 30 470 30 177
a 0 up 33 0 490 29 hct 100 V=
w 417
a 0 up 0:33 0 0 0 hln 100 V=
s 200 180 200 210 164
s 200 110 200 180 160
a 0 up 33 0 202 145 hlt 100 V=
s 230 180 200 180 162
w 147
a 0 up 0:33 0 0 0 hln 100 V=
s 360 180 370 180 110
s 360 150 360 180 108
s 250 150 360 150 105
a 0 up 33 0 305 149 hct 100 V=
s 250 150 250 160 391
s 250 110 250 150 107
w 68
a 0 up 0:33 0 0 0 hln 100 V=
s 640 180 650 180 138
s 640 150 640 180 136
s 530 150 640 150 133
a 0 up 33 0 585 149 hct 100 V=
s 530 150 530 160 386
s 530 110 530 150 135
w 45
a 0 up 0:33 0 0 0 hln 100 V=
s 500 180 510 180 124
s 500 130 500 180 122
s 390 130 500 130 119
a 0 up 33 0 445 129 hct 100 V=
s 390 130 390 160 381
s 390 110 390 130 121
w 93
a 0 up 0:33 0 0 0 hln 100 V=
s 700 210 700 200 96
s 700 200 730 200 378
s 670 200 700 200 98
a 0 up 33 0 715 199 hct 100 V=
w 70
a 0 up 0:33 0 0 0 hln 100 V=
s 560 210 560 200 73
s 560 200 590 200 375
s 530 200 560 200 75
a 0 up 33 0 575 199 hct 100 V=
w 47
a 0 up 0:33 0 0 0 hln 100 V=
s 420 210 420 200 50
s 420 200 450 200 372
s 390 200 420 200 52
a 0 up 33 0 435 199 hct 100 V=
w 6
a 0 up 0:33 0 0 0 hln 100 V=
s 280 210 280 200 9
s 280 200 310 200 369
s 250 200 280 200 35
a 0 up 33 0 295 199 hct 100 V=
w 307
a 0 sr 0 0 0 0 hln 100 LABEL=Ug
a 0 up 0:33 0 0 0 hln 100 V=
s 110 180 120 180 308
a 0 sr 3 0 115 176 hcn 100 LABEL=Ug
s 110 210 110 180 306
a 0 up 33 0 112 195 hlt 100 V=
w 24
a 0 sr 0 0 0 0 hln 100 LABEL=U1
a 0 up 0:33 0 0 0 hln 100 V=
s 480 140 310 140 148
a 0 sr 3 0 321 136 hcn 100 LABEL=U1
a 0 up 33 0 395 139 hct 100 V=
s 310 110 310 140 150
s 480 180 470 180 117
s 480 140 480 180 115
s 310 140 310 160 462
w 43
a 0 sr 0 0 0 0 hln 100 LABEL=U2
a 0 up 0:33 0 0 0 hln 100 V=
s 450 120 620 120 126
a 0 sr 3 0 461 116 hcn 100 LABEL=U2
a 0 up 33 0 535 119 hct 100 V=
s 450 110 450 120 128
s 620 180 610 180 131
s 620 120 620 180 129
s 450 120 450 160 467
w 66
a 0 sr 0:3 0 601 146 hcn 100 LABEL=U3
a 0 up 0:33 0 0 0 hln 100 V=
s 590 140 760 140 140
a 0 sr 3 0 601 136 hcn 100 LABEL=U3
a 0 up 33 0 675 139 hct 100 V=
s 590 110 590 140 142
s 760 180 750 180 145
s 760 140 760 180 317
s 590 140 590 160 472
w 89
a 0 sr 0:3 0 755 128 hcn 100 LABEL=Ua
a 0 up 0:33 0 0 0 hln 100 V=
s 730 120 780 120 224
a 0 sr 3 0 755 118 hcn 100 LABEL=Ua
s 730 110 730 120 196
a 0 up 33 0 732 135 hlt 100 V=
s 730 120 730 160 475
w 229
a 0 up 0:33 0 0 0 hln 100 V=
s 50 210 50 60 185
a 0 up 33 0 52 135 hlt 100 V=
s 50 60 200 60 167
s 200 70 200 60 165
s 450 70 450 60 40
s 450 60 390 60 257
s 390 60 310 60 483
s 390 60 390 70 36
s 310 70 310 60 25
s 310 60 250 60 261
s 250 60 200 60 488
s 250 60 250 70 29
s 590 70 590 60 63
s 590 60 530 60 335
s 530 60 450 60 493
s 530 60 530 70 59
s 730 70 730 60 86
s 730 60 670 60 84
s 670 60 590 60 497
s 670 60 670 70 82
@junction
j 200 250
+ p 158 2
+ s 159
j 280 250
+ p 7 2
+ s 12
j 420 250
+ p 53 2
+ s 58
j 560 250
+ p 76 2
+ s 81
j 700 250
+ p 99 2
+ s 104
j 160 180
+ p 227 1
+ p 305 2
j 110 250
+ p 303 -
+ s 304
j 50 250
+ p 2 -
+ s 184
j 340 250
+ p 169 2
+ s 170
j 670 160
+ p 100 c
+ w 210
j 510 30
+ p 212 2
+ w 210
j 670 110
+ p 103 2
+ w 210
j 670 120
+ w 210
+ w 210
j 330 180
+ p 4 b
+ w 221
j 340 210
+ p 169 1
+ w 221
j 340 180
+ w 221
+ w 221
j 470 30
+ p 212 1
+ w 221
j 200 210
+ p 158 1
+ w 417
j 200 180
+ p 227 2
+ w 417
j 200 110
+ p 157 2
+ w 417
j 230 180
+ p 3 b
+ w 417
j 370 180
+ p 54 b
+ w 147
j 250 160
+ p 3 c
+ w 147
j 250 110
+ p 15 2
+ w 147
j 250 150
+ w 147
+ w 147
j 650 180
+ p 100 b
+ w 68
j 530 160
+ p 77 c
+ w 68
j 530 110
+ p 80 2
+ w 68
j 530 150
+ w 68
+ w 68
j 510 180
+ p 77 b
+ w 45
j 390 160
+ p 54 c
+ w 45
j 390 110
+ p 57 2
+ w 45
j 390 130
+ w 45
+ w 45
j 700 210
+ p 99 1
+ w 93
j 730 200
+ p 101 e
+ w 93
j 670 200
+ p 100 e
+ w 93
j 700 200
+ w 93
+ w 93
j 560 210
+ p 76 1
+ w 70
j 590 200
+ p 78 e
+ w 70
j 530 200
+ p 77 e
+ w 70
j 560 200
+ w 70
+ w 70
j 420 210
+ p 53 1
+ w 47
j 450 200
+ p 55 e
+ w 47
j 390 200
+ p 54 e
+ w 47
j 420 200
+ w 47
+ w 47
j 280 210
+ p 7 1
+ w 6
j 310 200
+ p 4 e
+ w 6
j 250 200
+ p 3 e
+ w 6
j 280 200
+ w 6
+ w 6
j 110 210
+ p 303 +
+ w 307
j 120 180
+ p 305 1
+ w 307
j 310 160
+ p 4 c
+ w 24
j 310 110
+ p 22 2
+ w 24
j 470 180
+ p 55 b
+ w 24
j 310 140
+ w 24
+ w 24
j 450 160
+ p 55 c
+ w 43
j 450 110
+ p 56 2
+ w 43
j 610 180
+ p 78 b
+ w 43
j 450 120
+ w 43
+ w 43
j 590 160
+ p 78 c
+ w 66
j 590 110
+ p 79 2
+ w 66
j 750 180
+ p 101 b
+ w 66
j 590 140
+ w 66
+ w 66
j 730 160
+ p 101 c
+ w 89
j 730 110
+ p 102 2
+ w 89
j 730 120
+ w 89
+ w 89
j 50 210
+ p 2 +
+ w 229
j 200 70
+ p 157 1
+ w 229
j 450 60
+ w 229
+ w 229
j 390 60
+ w 229
+ w 229
j 310 60
+ w 229
+ w 229
j 450 70
+ p 56 1
+ w 229
j 390 70
+ p 57 1
+ w 229
j 310 70
+ p 22 1
+ w 229
j 200 60
+ w 229
+ w 229
j 250 70
+ p 15 1
+ w 229
j 250 60
+ w 229
+ w 229
j 590 70
+ p 79 1
+ w 229
j 590 60
+ w 229
+ w 229
j 530 70
+ p 80 1
+ w 229
j 530 60
+ w 229
+ w 229
j 730 70
+ p 102 1
+ w 229
j 670 70
+ p 103 1
+ w 229
j 670 60
+ w 229
+ w 229
@attributes
a 0 s 0:13 0 0 0 hln 100 PAGETITLE=
a 0 s 0:13 0 0 0 hln 100 PAGENO=1
a 0 s 0:13 0 0 0 hln 100 PAGESIZE=A
a 0 s 0:13 0 0 0 hln 100 PAGECOUNT=1
@graphics
