Version 4
SHEET 1 1312 1028
WIRE -688 -704 -688 -768
WIRE -592 -704 -592 -768
WIRE -688 -608 -688 -624
WIRE -640 -608 -688 -608
WIRE -592 -608 -592 -624
WIRE -592 -608 -640 -608
WIRE -640 -592 -640 -608
WIRE -224 -400 -336 -400
WIRE -80 -400 -224 -400
WIRE -224 -384 -224 -400
WIRE 160 -384 48 -384
WIRE 304 -384 160 -384
WIRE -336 -368 -336 -400
WIRE 160 -368 160 -384
WIRE 544 -368 432 -368
WIRE 688 -368 544 -368
WIRE 48 -352 48 -384
WIRE 544 -352 544 -368
WIRE 432 -336 432 -368
WIRE -640 -320 -720 -320
WIRE -512 -320 -560 -320
WIRE -512 -272 -512 -320
WIRE -480 -272 -512 -272
WIRE -448 -272 -480 -272
WIRE -336 -272 -336 -304
WIRE -336 -272 -368 -272
WIRE -304 -272 -336 -272
WIRE -224 -272 -224 -304
WIRE -224 -272 -240 -272
WIRE -176 -272 -224 -272
WIRE -80 -256 -80 -400
WIRE -80 -256 -112 -256
WIRE -64 -256 -80 -256
WIRE 48 -256 48 -288
WIRE 48 -256 16 -256
WIRE 80 -256 48 -256
WIRE 160 -256 160 -288
WIRE 160 -256 144 -256
WIRE 208 -256 160 -256
WIRE -640 -240 -720 -240
WIRE -512 -240 -512 -272
WIRE -512 -240 -560 -240
WIRE -336 -240 -336 -272
WIRE -176 -240 -192 -240
WIRE 304 -240 304 -384
WIRE 304 -240 272 -240
WIRE 320 -240 304 -240
WIRE 432 -240 432 -272
WIRE 432 -240 400 -240
WIRE 464 -240 432 -240
WIRE 544 -240 544 -272
WIRE 544 -240 528 -240
WIRE 592 -240 544 -240
WIRE 48 -224 48 -256
WIRE 208 -224 192 -224
WIRE 688 -224 688 -368
WIRE 688 -224 656 -224
WIRE 736 -224 688 -224
WIRE -720 -208 -720 -240
WIRE -192 -208 -192 -240
WIRE 432 -208 432 -240
WIRE 592 -208 576 -208
WIRE 192 -192 192 -224
WIRE 576 -176 576 -208
WIRE -336 -144 -336 -160
WIRE 48 -128 48 -144
WIRE 432 -112 432 -128
WIRE -720 -96 -720 -128
WIRE -432 112 -528 112
WIRE -400 112 -432 112
WIRE -912 144 -912 64
WIRE -800 144 -800 64
WIRE -688 144 -688 64
WIRE -528 144 -528 112
WIRE -32 208 -32 192
WIRE 0 208 -32 208
WIRE 112 208 80 208
WIRE 224 208 192 208
WIRE 304 208 224 208
WIRE 352 208 304 208
WIRE 464 208 416 208
WIRE 560 208 464 208
WIRE 672 208 560 208
WIRE -912 256 -912 224
WIRE -800 256 -800 224
WIRE -688 256 -688 224
WIRE -528 256 -528 224
WIRE 224 256 224 208
WIRE 464 256 464 208
WIRE 672 256 672 208
WIRE 304 272 304 208
WIRE 560 272 560 208
WIRE -432 336 -528 336
WIRE -400 336 -432 336
WIRE -528 368 -528 336
WIRE 224 384 224 336
WIRE 304 384 304 336
WIRE 464 384 464 336
WIRE 560 384 560 336
WIRE 672 384 672 336
WIRE -528 480 -528 448
WIRE -160 560 -160 544
WIRE -128 560 -160 560
WIRE 48 560 -48 560
WIRE 64 560 48 560
WIRE 224 560 144 560
WIRE 320 560 224 560
WIRE 416 560 400 560
WIRE 464 560 416 560
WIRE 512 560 464 560
WIRE 224 592 224 560
WIRE 48 688 48 560
WIRE 144 688 48 688
WIRE 224 688 224 656
WIRE 224 688 208 688
WIRE 256 688 224 688
WIRE 416 688 416 560
WIRE 416 688 320 688
WIRE 224 720 224 688
WIRE 224 832 224 800
FLAG -912 256 0
FLAG -912 64 f2
FLAG -528 256 0
FLAG -432 112 xm2
FLAG -800 256 0
FLAG -688 256 0
FLAG -800 64 x2
FLAG -688 64 w2
FLAG -192 -208 0
FLAG -336 -144 0
FLAG -720 -96 0
FLAG -640 -592 0
FLAG -592 -768 Vm
FLAG -688 -784 Vp
FLAG -720 -320 xm2
FLAG -80 -400 out1st
FLAG 192 -192 0
FLAG 48 -128 0
FLAG 304 -384 out2ns
FLAG 576 -176 0
FLAG 432 -112 0
FLAG 688 -368 out3rd
FLAG 224 384 0
FLAG 304 384 0
FLAG 464 384 0
FLAG 560 384 0
FLAG 672 384 0
FLAG -32 192 filIn
FLAG -480 -272 filIn
FLAG 672 208 an_fil
FLAG 224 832 0
FLAG -528 480 0
FLAG -432 336 xm2W
FLAG -160 544 filIn
FLAG 464 560 notch
SYMBOL source-V -912 128 R0
WINDOW 3 -175 53 Left 0
WINDOW 123 0 0 Left 0
WINDOW 39 0 0 Left 0
SYMATTR Value SINE(0 1 40k)
SYMATTR InstName V2
SYMBOL Function-V -528 128 R0
SYMATTR InstName B2
SYMATTR Value V=(V(x2)*V(f2))
SYMBOL source-V -800 128 R0
WINDOW 3 -75 173 Left 0
WINDOW 123 0 0 Left 0
WINDOW 39 0 0 Left 0
SYMATTR Value SINE(0 1 1k)
SYMATTR InstName V5
SYMBOL source-V -688 128 R0
WINDOW 3 -1 183 Invisible 0
WINDOW 123 0 0 Left 0
WINDOW 39 0 0 Left 0
SYMATTR Value PWL(0 0 10m 1m 10.01m 1 25m 0.995 25.01m 0 40m 1m 40.01m 1 60m 0.995 60.01m 0 90m 0.01 90.01m 1 110m 0.995 110.01m 0)
SYMATTR InstName V4
SYMBOL res -352 -288 R90
WINDOW 0 7 56 VBottom 0
WINDOW 3 25 56 VTop 0
SYMATTR InstName R1
SYMATTR Value {R1}
SYMBOL res -320 -144 R180
WINDOW 0 36 76 Left 0
WINDOW 3 36 40 Left 0
SYMATTR InstName R2
SYMATTR Value {R2}
SYMBOL res -208 -288 R180
WINDOW 0 36 76 Left 0
WINDOW 3 36 40 Left 0
SYMATTR InstName R3
SYMATTR Value {R3}
SYMBOL cap -240 -288 R90
WINDOW 0 0 32 VBottom 0
WINDOW 3 32 32 VTop 0
SYMATTR InstName C2
SYMATTR Value {C2}
SYMBOL cap -320 -304 R180
WINDOW 0 24 64 Left 0
WINDOW 3 24 8 Left 0
SYMATTR InstName C1
SYMATTR Value {C1}
SYMBOL source-V -688 -720 R0
WINDOW 3 33 65 Left 0
WINDOW 123 0 0 Left 0
WINDOW 39 0 0 Left 0
SYMATTR Value 15V
SYMATTR InstName V3
SYMBOL source-V -592 -720 R0
WINDOW 3 33 65 Left 0
WINDOW 123 0 0 Left 0
WINDOW 39 0 0 Left 0
SYMATTR Value -15V
SYMATTR InstName V6
SYMBOL source-V -720 -224 R0
WINDOW 3 33 65 Left 0
WINDOW 123 0 0 Left 0
WINDOW 39 0 0 Left 0
SYMATTR Value AC 1
SYMATTR InstName V7
SYMBOL res -656 -224 R270
WINDOW 0 25 56 VTop 0
WINDOW 3 7 56 VBottom 0
SYMATTR InstName R4
SYMATTR Value {R_AC}
SYMBOL res -656 -304 R270
WINDOW 0 25 56 VTop 0
WINDOW 3 7 56 VBottom 0
SYMATTR InstName R5
SYMATTR Value {R_sig}
SYMBOL EIT_Semiconductors\\op_3 -144 -256 R0
WINDOW 123 -19 88 Invisible 0
WINDOW 3 -22 59 Invisible 0
SYMATTR Value2 FT=100Meg SR=100meg
SYMATTR InstName U1
SYMBOL res 32 -272 R90
WINDOW 0 7 56 VBottom 0
WINDOW 3 25 56 VTop 0
SYMATTR InstName R6
SYMATTR Value {R1}
SYMBOL res 64 -128 R180
WINDOW 0 36 76 Left 0
WINDOW 3 36 40 Left 0
SYMATTR InstName R7
SYMATTR Value {R2}
SYMBOL res 176 -272 R180
WINDOW 0 36 76 Left 0
WINDOW 3 36 40 Left 0
SYMATTR InstName R8
SYMATTR Value {R3}
SYMBOL cap 144 -272 R90
WINDOW 0 0 32 VBottom 0
WINDOW 3 32 32 VTop 0
SYMATTR InstName C3
SYMATTR Value {C2}
SYMBOL cap 64 -288 R180
WINDOW 0 24 64 Left 0
WINDOW 3 24 8 Left 0
SYMATTR InstName C4
SYMATTR Value {C1}
SYMBOL EIT_Semiconductors\\op_3 240 -240 R0
WINDOW 123 -19 88 Invisible 0
WINDOW 3 -22 59 Invisible 0
SYMATTR Value2 FT=100Meg SR=100meg
SYMATTR InstName U2
SYMBOL res 416 -256 R90
WINDOW 0 7 56 VBottom 0
WINDOW 3 25 56 VTop 0
SYMATTR InstName R9
SYMATTR Value {R1}
SYMBOL res 448 -112 R180
WINDOW 0 36 76 Left 0
WINDOW 3 36 40 Left 0
SYMATTR InstName R10
SYMATTR Value {R2}
SYMBOL res 560 -256 R180
WINDOW 0 36 76 Left 0
WINDOW 3 36 40 Left 0
SYMATTR InstName R11
SYMATTR Value {R3}
SYMBOL cap 528 -256 R90
WINDOW 0 0 32 VBottom 0
WINDOW 3 32 32 VTop 0
SYMATTR InstName C5
SYMATTR Value {C2}
SYMBOL cap 448 -272 R180
WINDOW 0 24 64 Left 0
WINDOW 3 24 8 Left 0
SYMATTR InstName C6
SYMATTR Value {C1}
SYMBOL EIT_Semiconductors\\op_3 624 -224 R0
WINDOW 123 -19 88 Invisible 0
WINDOW 3 -22 59 Invisible 0
SYMATTR Value2 FT=100Meg SR=100meg
SYMATTR InstName U3
SYMBOL res 208 192 R90
WINDOW 0 7 56 VBottom 0
WINDOW 3 25 56 VTop 0
SYMATTR InstName R13
SYMATTR Value 33k
SYMBOL ind 208 240 R0
SYMATTR InstName L2
SYMATTR Value 1m
SYMBOL cap 288 272 R0
SYMATTR InstName C8
SYMATTR Value 10n
SYMBOL cap 416 192 R90
WINDOW 0 0 32 VBottom 0
WINDOW 3 32 32 VTop 0
SYMATTR InstName C9
SYMATTR Value 47p
SYMBOL ind 448 240 R0
SYMATTR InstName L3
SYMATTR Value 1m
SYMBOL cap 544 272 R0
SYMATTR InstName C10
SYMATTR Value 10n
SYMBOL res 656 240 R0
SYMATTR InstName R14
SYMATTR Value 33k
SYMBOL res 160 544 R90
WINDOW 0 7 56 VBottom 0
WINDOW 3 25 56 VTop 0
SYMATTR InstName R15
SYMATTR Value 22k
SYMBOL res 416 544 R90
WINDOW 0 7 56 VBottom 0
WINDOW 3 25 56 VTop 0
SYMATTR InstName R16
SYMATTR Value 22k
SYMBOL cap 208 592 R0
SYMATTR InstName C11
SYMATTR Value 1n
SYMBOL cap 208 672 R90
WINDOW 0 0 32 VBottom 0
WINDOW 3 32 32 VTop 0
SYMATTR InstName C12
SYMATTR Value 1n
SYMBOL cap 320 672 R90
WINDOW 0 0 32 VBottom 0
WINDOW 3 32 32 VTop 0
SYMATTR InstName C13
SYMATTR Value 1n
SYMBOL res 208 704 R0
SYMATTR InstName R17
SYMATTR Value 5.6k
SYMBOL Function-V -528 352 R0
SYMATTR InstName B1
SYMATTR Value V=(V(x2)*V(f2))*V(w2)
SYMBOL res 96 192 R90
WINDOW 0 -8 60 VBottom 0
WINDOW 3 44 50 VTop 0
SYMATTR InstName R18
SYMATTR Value 1n
SYMBOL res -32 544 R90
WINDOW 0 -8 60 VBottom 0
WINDOW 3 44 50 VTop 0
SYMATTR InstName R19
SYMATTR Value 1n
TEXT -368 -744 Left 0 !.step dec param f 10 100meg 100\n.ac list {f}\n.param R_AC = 1n\n.param R_SIG = 10000meg
TEXT -376 -584 Left 0 ;.step dec param w 10 100k 50\n.ac list {w/(2*pi)}
TEXT 24 -712 Left 0 ;.tran 120m\n.param R_AC = 10000meg\n.param R_SIG = 1n
TEXT -280 -16 Left 0 !.param R1=4.7k\n.param R2=47\n.param R3=330k\n.param C1=33n\n.param C2=470p
