Version 4
SHEET 1 880 680
WIRE -144 96 -160 96
WIRE 16 96 -112 96
WIRE 80 96 16 96
WIRE 208 96 160 96
WIRE -160 112 -160 96
WIRE 16 128 16 96
WIRE 208 128 208 96
WIRE -160 224 -160 192
WIRE 16 224 16 192
WIRE 208 224 208 208
WIRE 64 384 16 384
WIRE 112 384 64 384
WIRE 16 400 16 384
WIRE -64 416 -96 416
WIRE -64 464 -96 464
FLAG 16 224 0
FLAG 208 224 0
FLAG -160 224 0
FLAG 16 96 e
FLAG 208 96 a
FLAG -96 416 e
FLAG -96 464 0
FLAG 16 480 0
FLAG 64 384 al
SYMBOL res 192 112 R0
SYMATTR InstName R1
SYMATTR Value {RL}
SYMBOL cap 0 128 R0
SYMATTR InstName C1
SYMATTR Value {C6}
SYMBOL ind 64 112 R270
WINDOW 0 30 56 VTop 2
WINDOW 3 6 56 VBottom 2
SYMATTR InstName L1
SYMATTR Value {L2}
SYMBOL BOR_sym\\source-V -160 96 M0
WINDOW 123 28 109 Left 2
WINDOW 39 0 0 Left 2
SYMATTR InstName V1
SYMATTR Value 0
SYMATTR Value2 AC 1
SYMBOL MDB_sym\\isoR -128 96 R270
WINDOW 0 4 0 VTop 2
WINDOW 3 -24 0 VTop 2
SYMATTR InstName R2
SYMATTR Value .10
SYMBOL BOR_sym\\crtl-V-V 16 384 R0
SYMATTR InstName E1
SYMATTR Value laplace=(RL+s*L2)/(1+s**2*L2*C6+s*RL*C6)
TEXT 320 120 Left 2 !.param filt=1\n+ RL = 13k\n+ L2 = 47u\n+ C6 = 470p
TEXT -184 304 Left 2 !.ac dec 100 1meg 1e9
TEXT -16 8 Left 2 !.step param C6 list 470p 1e-20
