Version 4
SHEET 1 3792 788
WIRE -48 -240 -64 -240
WIRE -16 -240 -48 -240
WIRE 112 -240 64 -240
WIRE 576 -240 112 -240
WIRE 1088 -240 656 -240
WIRE 1744 -128 1744 -144
WIRE 704 -112 384 -112
WIRE 800 -112 704 -112
WIRE 912 -112 800 -112
WIRE 960 -112 912 -112
WIRE -64 -96 -64 -240
WIRE 384 -96 384 -112
WIRE 800 -80 800 -112
WIRE 1744 -16 1744 -48
WIRE 1744 -16 1680 -16
WIRE 1808 -16 1744 -16
WIRE 912 0 912 -112
WIRE -64 16 -64 -16
WIRE 384 16 384 -16
WIRE 384 16 304 16
WIRE 464 16 384 16
WIRE 800 48 800 0
WIRE 848 48 800 48
WIRE 1680 80 1680 64
WIRE 1808 80 1808 64
WIRE 304 112 304 16
WIRE 464 112 464 16
WIRE 1600 128 1536 128
WIRE 1616 128 1600 128
WIRE 1888 128 1872 128
WIRE 112 160 112 -240
WIRE 240 160 112 160
WIRE 256 160 240 160
WIRE 544 160 528 160
WIRE 912 160 912 96
WIRE 1088 160 1088 -240
WIRE 1088 160 912 160
WIRE 720 176 624 176
WIRE 800 176 800 48
WIRE 800 176 784 176
WIRE 1600 208 1536 208
WIRE 1888 208 1888 128
WIRE 1888 208 1600 208
WIRE 912 224 912 160
WIRE 1536 224 1536 208
WIRE 256 240 192 240
WIRE 544 240 544 160
WIRE 544 240 256 240
WIRE 704 240 704 -112
WIRE 1808 256 1808 176
WIRE 1936 256 1808 256
WIRE 800 272 800 176
WIRE 816 272 800 272
WIRE 848 272 816 272
WIRE 1680 272 1680 176
WIRE 1744 272 1680 272
WIRE 1936 272 1936 256
WIRE 464 288 464 208
WIRE 624 288 624 176
WIRE 624 288 464 288
WIRE 640 288 624 288
WIRE 1680 288 1680 272
WIRE 1808 288 1808 256
WIRE 304 304 304 208
WIRE 384 304 304 304
WIRE 304 320 304 304
WIRE 464 320 464 288
WIRE 800 320 800 272
WIRE 1536 336 1536 304
WIRE 1744 336 1744 272
WIRE 384 368 384 304
WIRE 384 368 368 368
WIRE 400 368 384 368
WIRE 704 368 704 336
WIRE 736 368 704 368
WIRE 1408 384 1408 368
WIRE 704 400 704 368
WIRE 1680 464 1680 384
WIRE 1808 464 1808 384
WIRE 1808 464 1680 464
WIRE 1824 464 1808 464
WIRE 1840 464 1824 464
WIRE 304 496 304 416
WIRE 464 496 464 416
WIRE 464 496 304 496
WIRE 624 496 464 496
WIRE 704 496 704 480
WIRE 704 496 624 496
WIRE 800 496 800 416
WIRE 800 496 704 496
WIRE 912 496 912 320
WIRE 912 496 800 496
WIRE 960 496 912 496
WIRE 1408 496 1408 464
FLAG 816 272 o
FLAG -64 16 0
FLAG 1088 160 out
FLAG 1408 496 0
FLAG 256 160 in-
FLAG 192 240 0
FLAG 256 240 in+
FLAG 1408 368 0
FLAG -48 -240 sig
FLAG 1936 352 0
FLAG 704 -112 V+
FLAG 624 496 V-
FLAG 1744 -144 V+
FLAG 1824 464 V-
FLAG 1600 208 in+1
FLAG 1600 128 in-1
FLAG 1536 336 0
FLAG 160 768 0
FLAG 160 688 0
SYMBOL EIT_Semiconductors\\pnp_o 240 112 R0
WINDOW 3 86 59 Left 2
SYMATTR Value CA3096_pnp
SYMATTR InstName Q1
SYMBOL EIT_Semiconductors\\pnp_o 528 112 M0
WINDOW 3 78 33 Invisible 2
SYMATTR Value CA3096_pnp
SYMATTR InstName Q2
SYMBOL EIT_Semiconductors\\npn 368 320 M0
WINDOW 3 -51 113 Left 2
SYMATTR Value CA3046
SYMATTR InstName Q3
SYMBOL EIT_Semiconductors\\npn 400 320 R0
WINDOW 3 -56 102 Invisible 2
SYMATTR Value CA3046
SYMATTR InstName Q4
SYMBOL EIT_Semiconductors\\npn 640 240 R0
SYMATTR InstName Q5
SYMATTR Value CA3046
SYMBOL EIT_Semiconductors\\npn 736 320 R0
SYMATTR InstName Q6
SYMATTR Value CA3046
SYMBOL EIT_Semiconductors\\npn 848 0 R0
WINDOW 3 23 -137 Left 2
SYMATTR Value CA3046
SYMATTR InstName Q7
SYMBOL EIT_Semiconductors\\pnp_o 848 224 R0
WINDOW 3 -14 301 Left 2
SYMATTR Value CA3096_pnp
SYMATTR InstName Q8
SYMBOL cap 784 160 R90
WINDOW 0 0 32 VBottom 2
WINDOW 3 32 32 VTop 2
SYMATTR InstName C1
SYMATTR Value 33p
SYMBOL source-I 384 -16 R180
WINDOW 0 29 73 Left 2
WINDOW 3 29 17 Left 2
WINDOW 123 0 0 Left 2
WINDOW 39 0 0 Left 2
SYMATTR InstName I1
SYMATTR Value 20µ
SYMBOL source-I 800 0 R180
WINDOW 0 29 73 Left 2
WINDOW 3 29 17 Left 2
SYMATTR InstName I2
SYMATTR Value 200µ
SYMBOL source-I 704 480 R180
WINDOW 0 29 73 Left 2
WINDOW 3 29 17 Left 2
SYMATTR InstName I3
SYMATTR Value 20µ
SYMBOL res -32 -224 R270
WINDOW 0 25 56 VTop 2
WINDOW 3 7 56 VBottom 2
SYMATTR InstName R1
SYMATTR Value 10k
SYMBOL res 560 -224 R270
WINDOW 0 25 56 VTop 2
WINDOW 3 7 56 VBottom 2
SYMATTR InstName R2
SYMATTR Value {k*10k}
SYMBOL source-V -64 -112 R0
WINDOW 123 28 56 Left 2
WINDOW 39 0 0 Left 2
WINDOW 3 28 80 Left 2
SYMATTR Value2 AC 1
SYMATTR Value SINE(0 1 {fsin})
SYMATTR InstName V3
SYMBOL source-I 1408 464 R180
WINDOW 0 29 73 Left 2
WINDOW 3 29 17 Left 2
SYMATTR InstName I4
SYMATTR Value 20µ
SYMBOL source-Vmarker 960 496 M0
SYMATTR Value V={-Vsup}
SYMATTR InstName U2
SYMBOL source-Vmarker 960 -112 M0
SYMATTR Value V={Vsup}
SYMATTR InstName U1
SYMBOL res 144 672 R0
SYMATTR InstName R4
SYMATTR Value {RE}
SYMBOL EIT_Semiconductors\\pnp_o 1616 80 R0
WINDOW 3 229 -28 Left 2
SYMATTR Value CA3096_pnp
SYMATTR InstName Q9
SYMBOL EIT_Semiconductors\\pnp_o 1872 80 M0
WINDOW 3 -93 -49 Left 2
SYMATTR Value CA3096_pnp
SYMATTR InstName Q10
SYMBOL EIT_Semiconductors\\npn 1744 288 M0
WINDOW 3 -174 97 Left 2
SYMATTR Value CA3046
SYMATTR InstName Q11
SYMBOL EIT_Semiconductors\\npn 1744 288 R0
WINDOW 3 101 70 Left 2
SYMATTR Value CA3046
SYMATTR InstName Q12
SYMBOL source-I 1744 -48 R180
WINDOW 0 29 73 Left 2
WINDOW 3 29 17 Left 2
WINDOW 123 0 0 Left 2
WINDOW 39 0 0 Left 2
SYMATTR InstName I5
SYMATTR Value 40µ
SYMBOL res 1920 256 R0
SYMATTR InstName R6
SYMATTR Value 100k
SYMBOL res 1664 -32 R0
SYMATTR InstName R7
SYMATTR Value {RE}
SYMBOL res 1824 -32 M0
SYMATTR InstName R8
SYMATTR Value {RE}
SYMBOL source-V 1536 112 M0
WINDOW 123 28 56 Left 2
WINDOW 39 0 0 Left 2
WINDOW 3 28 80 Left 2
SYMATTR Value2 AC 1
SYMATTR Value SINE(0 1 1k)
SYMATTR InstName V1
SYMBOL res 1520 208 R0
SYMATTR InstName R9
SYMATTR Value 100meg
TEXT -112 72 Left 2 ;.dc V3 -4.5 4.5 .01
TEXT -192 312 Left 2 !.param k=2\n+ Vsup = 10V\n+ RE = 100\n+ fsin = 1k
TEXT -192 280 Left 2 ;.step param k list 1 2 10 100 1000
TEXT -56 616 Left 2 ;.MODEL CA3046 npn ( IS=10.0f XTI=3.0 EG=1.11 VAF=100 VAR=100 BF=145.7 ISE=114.286f NE=1.480 IKF=46.7m XTB=0 BR=0.1 ISC=10.005f NC=2.0 IKR=10m RC=10.0 CJC=991.7f MJC=0.333 VJC=0.75 FC=0.5 CJE=1.02p MJE=0.336 VJE=0.75 TR=10n TF=277.01p ITF=1.75 XTF=309.38 VTF=16.37 PTF=0 RE=0 RB=0 Vceo=20 Icrating=0.1A mfg=Fairchild)\n.MODEL CA3096_pnp PNP IS=10.000E-15 BF=94.511 VAF=100 IKF=1.1177E-3 ISE=976.47E-15 NE=1.9980 BR=.1001 VAR=100 IKR=10.010E-3 ISC=10.000E-15 NK=.53243 CJE=1.4535E-12 MJE=.33333 CJC=3.8474E-12 MJC=.33333 TF=24.300E-9 XTF=10.054 VTF=9.7920 ITF=1.2571 TR=10.000E-9 Vceo=20 Icrating=0.1A mfg=Fairchild)
TEXT -104 96 Left 2 ;.dc V1 -350m 350m .01
TEXT -288 416 Left 2 ;.step param RE list 1u 1k 2k 3k 4k 5k
TEXT -288 664 Left 2 !.tran 0 {100/fsin} {(100-3)/fsin}
RECTANGLE Normal 960 544 240 -160 2
