Version 4
SHEET 1 3792 1652
WIRE 384 -112 192 -112
WIRE 704 -112 384 -112
WIRE 800 -112 704 -112
WIRE 912 -112 800 -112
WIRE 384 -96 384 -112
WIRE 800 -80 800 -112
WIRE 912 0 912 -112
WIRE 384 16 384 -16
WIRE 384 16 304 16
WIRE 464 16 384 16
WIRE 800 48 800 0
WIRE 848 48 800 48
WIRE 304 112 304 16
WIRE 464 112 464 16
WIRE 240 160 208 160
WIRE 544 160 528 160
WIRE 912 160 912 96
WIRE 992 160 912 160
WIRE 720 176 624 176
WIRE 800 176 800 48
WIRE 800 176 784 176
WIRE 912 224 912 160
WIRE 80 240 32 240
WIRE 544 240 544 160
WIRE 544 240 208 240
WIRE 704 240 704 -112
WIRE 32 272 32 240
WIRE 800 272 800 176
WIRE 816 272 800 272
WIRE 848 272 816 272
WIRE 464 288 464 208
WIRE 624 288 624 176
WIRE 624 288 464 288
WIRE 640 288 624 288
WIRE 304 304 304 208
WIRE 384 304 304 304
WIRE 304 320 304 304
WIRE 464 320 464 288
WIRE 800 320 800 272
WIRE 384 368 384 304
WIRE 384 368 368 368
WIRE 400 368 384 368
WIRE 704 368 704 336
WIRE 736 368 704 368
WIRE 32 384 32 352
WIRE 704 400 704 368
WIRE 304 496 304 416
WIRE 304 496 208 496
WIRE 464 496 464 416
WIRE 464 496 304 496
WIRE 704 496 704 480
WIRE 704 496 464 496
WIRE 800 496 800 416
WIRE 800 496 704 496
WIRE 912 496 912 320
WIRE 912 496 800 496
FLAG 816 272 o
FLAG 992 160 out
IOPIN 992 160 Out
FLAG 208 160 in-
IOPIN 208 160 In
FLAG 208 240 in+
IOPIN 208 240 In
FLAG 192 -112 V+
IOPIN 192 -112 In
FLAG 208 496 V-
IOPIN 208 496 In
FLAG 32 384 0
FLAG 80 240 in+
IOPIN 80 240 In
FLAG -16 32 out
IOPIN -16 32 Out
FLAG -96 32 in-
IOPIN -96 32 In
SYMBOL pnp_o 240 112 R0
WINDOW 3 86 59 Left 2
SYMATTR Value CA3096_pnp
SYMATTR InstName Q1
SYMBOL pnp_o 528 112 M0
WINDOW 3 78 33 Invisible 2
SYMATTR Value CA3096_pnp
SYMATTR InstName Q2
SYMBOL npn 368 320 M0
WINDOW 3 -51 113 Left 2
SYMATTR Value CA3046
SYMATTR InstName Q3
SYMBOL npn 400 320 R0
WINDOW 3 -56 102 Invisible 2
SYMATTR Value CA3046
SYMATTR InstName Q4
SYMBOL npn 640 240 R0
SYMATTR InstName Q5
SYMATTR Value CA3046
SYMBOL npn 736 320 R0
SYMATTR InstName Q6
SYMATTR Value CA3046
SYMBOL npn 848 0 R0
WINDOW 3 23 -137 Left 2
SYMATTR Value CA3046
SYMATTR InstName Q7
SYMBOL pnp_o 848 224 R0
WINDOW 3 -14 301 Left 2
SYMATTR Value CA3096_pnp
SYMATTR InstName Q8
SYMBOL cap 784 160 R90
WINDOW 0 0 32 VBottom 2
WINDOW 3 32 32 VTop 2
SYMATTR InstName C1
SYMATTR Value 33p
SYMBOL source-I 384 -16 R180
WINDOW 0 29 73 Left 2
WINDOW 3 29 17 Left 2
WINDOW 123 0 0 Left 2
WINDOW 39 0 0 Left 2
SYMATTR InstName I1
SYMATTR Value 20µ
SYMBOL source-I 800 0 R180
WINDOW 0 29 73 Left 2
WINDOW 3 29 17 Left 2
SYMATTR InstName I2
SYMATTR Value 200µ
SYMBOL source-I 704 480 R180
WINDOW 0 29 73 Left 2
WINDOW 3 29 17 Left 2
SYMATTR InstName I3
SYMATTR Value 20µ
SYMBOL source-V 32 256 R0
WINDOW 123 28 56 Left 2
WINDOW 39 0 0 Left 2
WINDOW 3 28 80 Left 2
SYMATTR Value2 AC 1
SYMATTR Value SINE(0 1 {fsin})
SYMATTR InstName V1
SYMBOL res -112 48 R270
WINDOW 0 25 56 VTop 2
WINDOW 3 7 56 VBottom 2
SYMATTR InstName R1
SYMATTR Value 1k
TEXT 376 -288 Left 2 !.param k=2\n+ Vsup = 10V\n+ RE = 100\n+ fsin = 1k
TEXT 520 -288 Left 2 ;.step param k list 1 2 10 100 1000
TEXT 72 600 Left 2 !.MODEL CA3046 npn ( IS=10.0f XTI=3.0 EG=1.11 VAF=100 VAR=100 BF=145.7 ISE=114.286f \n                  + NE=1.480 IKF=46.7m XTB=0 BR=0.1 ISC=10.005f NC=2.0 IKR=10m RC=10.0 \n                  + CJC=991.7f MJC=0.333 VJC=0.75 FC=0.5 CJE=1.02p MJE=0.336 VJE=0.75 \n                  + TR=10n TF=277.01p ITF=1.75 XTF=309.38 VTF=16.37 PTF=0 RE=0 RB=0 Vceo=20 \n                  + Icrating=0.1A mfg=Fairchild )\n.MODEL CA3096_pnp PNP( IS=10.000E-15 BF=94.511 VAF=100 IKF=1.1177E-3 ISE=976.47E-15 NE=1.9980 \n                     + BR=.1001 VAR=100 IKR=10.010E-3 ISC=10.000E-15 NK=.53243 CJE=1.4535E-12 \n                     + MJE=.33333 CJC=3.8474E-12 MJC=.33333 TF=24.300E-9 XTF=10.054 VTF=9.7920 \n                     + ITF=1.2571 TR=10.000E-9 Vceo=20 Icrating=0.1A mfg=Fairchild )
TEXT 512 -248 Left 2 !.tran 0 {100/fsin} {(100-3)/fsin}
TEXT 136 -392 Left 2 ;------------------------------------------------------------------------------------------------------------------------------\nSkript EAS S.26  --  Prinzipieller Aufbau eines Operationsverstaerkers mit bipolaren \n                                 Transistoren und pnp-Eingangsstufe\n------------------------------------------------------------------------------------------------------------------------------
RECTANGLE Normal 960 544 240 -160 2
