Version 4
SHEET 1 880 680
WIRE -624 -1008 -624 -1088
WIRE -624 -896 -624 -944
WIRE -624 -800 -624 -816
WIRE -1376 -688 -1424 -688
WIRE -1264 -688 -1296 -688
WIRE -912 -688 -1264 -688
WIRE -512 -688 -832 -688
WIRE -1024 -592 -1152 -592
WIRE -960 -592 -1024 -592
WIRE -800 -592 -960 -592
WIRE -720 -592 -800 -592
WIRE -656 -592 -720 -592
WIRE -592 -592 -656 -592
WIRE -1024 -560 -1024 -592
WIRE -960 -560 -960 -592
WIRE -800 -560 -800 -592
WIRE -720 -560 -720 -592
WIRE -656 -560 -656 -592
WIRE -1264 -544 -1264 -688
WIRE -240 -512 -272 -512
WIRE -192 -512 -240 -512
WIRE -240 -464 -272 -464
WIRE -192 -464 -240 -464
WIRE -1296 -448 -1296 -480
WIRE -1264 -448 -1264 -480
WIRE -1264 -448 -1296 -448
WIRE -1024 -448 -1024 -480
WIRE -1024 -448 -1120 -448
WIRE -960 -448 -960 -480
WIRE -960 -448 -1024 -448
WIRE -928 -448 -960 -448
WIRE -800 -448 -800 -480
WIRE -720 -448 -720 -480
WIRE -720 -448 -800 -448
WIRE -656 -448 -656 -496
WIRE -656 -448 -720 -448
WIRE -1120 -416 -1120 -448
WIRE -928 -416 -928 -448
WIRE -1440 -400 -1440 -432
WIRE -1264 -400 -1264 -448
WIRE -1200 -400 -1264 -400
WIRE -1168 -400 -1200 -400
WIRE -848 -400 -880 -400
WIRE -1440 -304 -1440 -320
WIRE -1440 -288 -1440 -304
WIRE -1440 -288 -1456 -288
WIRE -512 -288 -512 -688
WIRE -1120 -272 -1120 -320
WIRE -1024 -272 -1120 -272
WIRE -928 -272 -928 -320
WIRE -832 -272 -928 -272
WIRE -800 -272 -832 -272
WIRE -720 -272 -720 -448
WIRE -720 -272 -736 -272
WIRE -656 -272 -720 -272
WIRE -624 -272 -656 -272
WIRE -592 -272 -624 -272
WIRE -1120 -240 -1120 -272
WIRE -928 -240 -928 -272
WIRE -720 -224 -720 -272
WIRE -1440 -192 -1440 -208
WIRE -1440 -192 -1456 -192
WIRE -592 -192 -592 -224
WIRE -512 -192 -512 -208
WIRE -1440 -176 -1440 -192
WIRE -832 -144 -832 -272
WIRE -768 -144 -832 -144
WIRE -656 -144 -656 -272
WIRE -1024 -128 -1024 -272
WIRE -1024 -128 -1072 -128
WIRE -976 -128 -1024 -128
WIRE -192 -64 -240 -64
WIRE -240 -48 -240 -64
WIRE -1120 -32 -1120 -112
WIRE -1120 -32 -1184 -32
WIRE -928 -32 -928 -112
WIRE -928 -32 -1120 -32
WIRE -720 -32 -720 -128
WIRE -720 -32 -928 -32
WIRE -656 -32 -656 -80
WIRE -656 -32 -720 -32
WIRE -592 -32 -656 -32
WIRE -240 48 -240 32
WIRE -1200 128 -1232 128
WIRE -1184 128 -1200 128
WIRE -1072 128 -1104 128
WIRE -1040 128 -1072 128
WIRE -1008 128 -1040 128
WIRE -1072 160 -1072 128
WIRE -1072 240 -1072 224
FLAG -240 -464 Vpl
FLAG -592 -592 Vpl
IOPIN -592 -592 In
FLAG -848 -400 in+
FLAG -1200 -400 in-
FLAG -592 -32 Vmi
IOPIN -592 -32 In
FLAG -240 -512 Vmi
FLAG -192 -512 Vmi
IOPIN -192 -512 Out
FLAG -192 -464 Vpl
IOPIN -192 -464 Out
FLAG -1152 -592 Vpl
IOPIN -1152 -592 In
FLAG -1184 -32 Vmi
IOPIN -1184 -32 In
FLAG -1440 -432 in+
FLAG -1536 -288 0
FLAG -1536 -192 0
FLAG -240 48 0
FLAG -512 -192 0
FLAG -592 -192 0
FLAG -1440 -176 0
FLAG -1424 -688 0
FLAG -624 -272 out
FLAG -1296 -544 0
FLAG -1072 240 0
FLAG -1200 128 sig
FLAG -1440 -304 sig
FLAG -1040 128 sigf
FLAG -624 -800 0
FLAG -480 -816 0
FLAG -480 -896 0
SYMBOL EIT_Semiconductors\\nmos -1072 -208 M0
SYMATTR InstName M3
SYMATTR Value Nx1
SYMBOL EIT_Semiconductors\\nmos -976 -208 R0
SYMATTR InstName M4
SYMATTR Value Nx1
SYMBOL MDB_sym\\arrow_curr -1120 -224 R0
SYMATTR InstName ID3
SYMBOL MDB_sym\\arrow_curr -928 -224 R0
SYMATTR InstName ID2
SYMBOL source-Vmarker -272 -464 R0
SYMATTR Value V={Vpl}
SYMATTR InstName U1
SYMBOL EIT_Semiconductors\\pmos -1168 -320 M180
SYMATTR InstName M1
SYMATTR Value Px
SYMBOL EIT_Semiconductors\\pmos -880 -320 R180
SYMATTR InstName M2
SYMATTR Value Px
SYMBOL source-I -1024 -480 R180
WINDOW 0 29 73 Left 2
WINDOW 3 29 17 Left 2
WINDOW 123 0 0 Left 2
WINDOW 39 0 0 Left 2
SYMATTR InstName I5
SYMATTR Value {I0}
SYMBOL source-Vmarker -272 -512 R0
SYMATTR Value V={-Vpl}
SYMATTR InstName U2
SYMBOL cap -800 -256 R270
WINDOW 0 32 32 VTop 2
WINDOW 3 0 32 VBottom 2
SYMATTR InstName C1
SYMATTR Value {Cc}
SYMBOL EIT_Semiconductors\\nmos -768 -224 R0
SYMATTR InstName M5
SYMATTR Value Nx1
SYMBOL source-I -720 -480 R180
WINDOW 0 29 73 Left 2
WINDOW 3 29 17 Left 2
WINDOW 123 0 0 Left 2
WINDOW 39 0 0 Left 2
SYMATTR InstName I6
SYMATTR Value {I1}
SYMBOL source-V -1440 -304 R0
WINDOW 123 28 52 Left 2
WINDOW 39 0 0 Left 2
SYMATTR InstName V1
SYMATTR Value SINE(0 10m 1k)
SYMATTR Value2 AC 1
SYMBOL res -1440 -208 R90
WINDOW 0 7 56 VBottom 2
WINDOW 3 25 56 VTop 2
SYMATTR InstName R1
SYMATTR Value 10meg
SYMBOL res -1440 -272 M270
WINDOW 0 25 56 VTop 2
WINDOW 3 7 56 VBottom 2
SYMATTR InstName R2
SYMATTR Value 10meg
SYMBOL source-V -240 -64 R0
WINDOW 123 0 0 Left 2
WINDOW 39 0 0 Left 2
SYMATTR InstName V2
SYMATTR Value SINE(0 1 100k)
SYMBOL crtl-V-V -512 -304 R0
SYMATTR InstName E1
SYMATTR Value 1
SYMBOL res -816 -704 R90
WINDOW 0 7 56 VBottom 2
WINDOW 3 25 56 VTop 2
SYMATTR InstName R5
SYMATTR Value 90k
SYMBOL res -1280 -704 R90
WINDOW 0 7 56 VBottom 2
WINDOW 3 25 56 VTop 2
SYMATTR InstName R6
SYMATTR Value 10k
SYMBOL res -1456 -416 R0
SYMATTR InstName R7
SYMATTR Value 1k
SYMBOL MDB_sym\\jumperRes -1360 -512 R270
SYMATTR InstName U3
SYMBOL diode -640 -496 R180
WINDOW 0 24 72 Left 2
WINDOW 3 24 0 Left 2
SYMATTR InstName D1
SYMATTR Value Dx
SYMBOL diode -672 -80 M180
WINDOW 0 24 72 Left 2
WINDOW 3 24 0 Left 2
SYMATTR InstName D2
SYMATTR Value Dx
SYMBOL res -1200 144 R270
WINDOW 0 25 56 VTop 2
WINDOW 3 7 56 VBottom 2
SYMATTR InstName R3
SYMATTR Value {1/(2*PI*100*10n)}
SYMBOL cap -1088 160 R0
SYMATTR InstName C2
SYMATTR Value 10n
SYMBOL cap -640 -1008 R0
SYMATTR InstName C3
SYMATTR Value 1µ
SYMBOL source-Vmarker -624 -1088 R0
SYMATTR Value V=10
SYMATTR InstName U4
SYMBOL bi -480 -896 R0
SYMATTR InstName B1
SYMATTR Value I=sin(2*pi*1k*3*time/100m)
SYMBOL source-I -624 -816 R180
WINDOW 0 29 73 Left 2
WINDOW 3 29 17 Left 2
WINDOW 123 0 0 Left 2
WINDOW 39 29 49 Left 2
SYMATTR InstName I1
SYMATTR Value 1
TEXT -392 -256 Left 2 !.model Px PMOS(VT0=-1 KP=2.4m )\n.model Nx1 NMOS(VT0={Vp} KP={KP1})\n.model Nx2 NMOS(VT0={Vp} KP={KP2})\n.model Dx D (Ron=1 Roff=100meg Vfwd=.1 )
TEXT -392 -424 Left 2 !.param Vpl = 10\n.param VP=1.5\n.param Cc=4p\n.param KP1=.2m  KP2=8m
TEXT -396 -142 Left 2 !.tran 0 100m 7m
TEXT -384 -640 Left 2 !.param I0=150u\n.param I1=100u
TEXT -394 -106 Left 2 ;.ac oct 100 1 100meg
TEXT -616 80 Left 2 ;.step param I0 list 100u 200u 300u 500u
