Version 4
SHEET 1 880 680
WIRE -496 -592 -560 -592
WIRE -560 -560 -560 -592
WIRE -560 -464 -560 -480
WIRE -560 -464 -608 -464
WIRE -608 -448 -608 -464
WIRE -560 -432 -560 -464
WIRE -208 -352 -224 -352
WIRE 192 -352 -128 -352
WIRE -560 -320 -560 -352
WIRE -496 -320 -560 -320
WIRE 64 -320 64 -384
WIRE 0 -272 -64 -272
WIRE -64 -256 -64 -272
WIRE -416 -128 -432 -128
WIRE -368 -128 -416 -128
WIRE -224 -128 -224 -352
WIRE -224 -128 -288 -128
WIRE -192 -128 -224 -128
WIRE -96 -112 -128 -112
WIRE -64 -112 -64 -176
WIRE -64 -112 -96 -112
WIRE 64 -112 64 -224
WIRE 176 -112 64 -112
WIRE 192 -112 192 -352
WIRE 192 -112 176 -112
WIRE 224 -112 192 -112
WIRE -192 -96 -224 -96
WIRE -224 -64 -224 -96
WIRE -432 -48 -432 -128
WIRE -64 -48 -64 -112
WIRE 64 -16 64 -112
WIRE 0 32 -64 32
WIRE 224 32 224 -112
WIRE -432 48 -432 32
WIRE -224 48 -224 16
WIRE 64 144 64 80
WIRE 224 160 224 112
FLAG -224 48 0
FLAG -432 48 0
FLAG -608 -448 0
FLAG 64 144 VEE
FLAG -496 -320 VEE
FLAG -496 -592 VCC
FLAG 64 -384 VCC
FLAG 224 160 0
FLAG -416 -128 poti
FLAG 176 -112 out
FLAG -96 -112 op_out
SYMBOL source-V -560 -576 R0
WINDOW 3 28 56 Left 0
WINDOW 123 0 0 Left 0
WINDOW 39 0 0 Left 0
SYMATTR Value 25
SYMATTR InstName V1
SYMBOL source-V -560 -448 R0
WINDOW 123 0 0 Left 0
WINDOW 39 0 0 Left 0
SYMATTR InstName V2
SYMATTR Value 25
SYMBOL EIT_Semiconductors\\npn 0 -320 R0
SYMATTR InstName Q1
SYMBOL EIT_Semiconductors\\pnp 0 80 M180
SYMATTR InstName Q2
SYMBOL res -272 -144 R90
WINDOW 0 7 56 VBottom 0
WINDOW 3 25 56 VTop 0
SYMATTR InstName R1
SYMATTR Value 10k
SYMBOL res -208 32 R180
WINDOW 0 36 76 Left 0
WINDOW 3 36 40 Left 0
SYMATTR InstName R2
SYMATTR Value 10k
SYMBOL res -112 -368 R90
WINDOW 0 7 56 VBottom 0
WINDOW 3 25 56 VTop 0
SYMATTR InstName R3
SYMATTR Value 50k
SYMBOL source-V -432 -64 R0
WINDOW 123 0 0 Left 0
WINDOW 39 0 0 Left 0
WINDOW 3 -23 165 Left 0
SYMATTR InstName V3
SYMATTR Value PULSE(-5 5 10m 1)
SYMBOL res 208 16 R0
SYMATTR InstName R4
SYMATTR Value 50
SYMBOL EIT_Semiconductors\\op_3 -160 -112 R0
WINDOW 123 -90 291 Left 0
WINDOW 3 -84 265 Left 0
SYMATTR InstName U1
SYMATTR Value Vp=25 Vm=-15 Ilim=20m
SYMBOL res -80 -272 R0
SYMATTR InstName R7
SYMATTR Value 100
SYMBOL res -80 -64 R0
SYMATTR InstName R8
SYMATTR Value 100
TEXT -444 174 Left 0 !.tran 1
