*SRC=ES3DB;DI_ES3DB;Diodes;Si;  200V  3.00A  25.0ns   Diodes Inc. 
.MODEL DI_ES3DB D  ( IS=7.27p RS=22.4m BV=200 IBV=10.0u
+ CJO=83.2p  M=0.333 N=0.700 TT=36.0n )