*SRC=MURS140;DI_MURS140;Diodes;Si;  400V  1.00A  50.0ns   Diodes Inc. Super Fast Rectifier
.MODEL DI_MURS140 D  ( IS=17.1n RS=20.6m BV=400 IBV=2.00u
+ CJO=45.0p  M=0.333 N=1.73 TT=72.0n )
***********************************************************************************************************************************