*SRC=RS3G;DI_RS3G;Diodes;Si;  400V  3.00A  150ns   Diodes Inc. Fast Rectifier
.MODEL DI_RS3G D  ( IS=200n RS=25.4m BV=400 IBV=5.00u
+ CJO=92.5p  M=0.333 N=2.23 TT=216n )
**********************************************************************************************************