*SRC=RS1MB;DI_RS1MB;Diodes;Si;  1.00kV  1.00A  500ns   Diodes Inc. Fast Rectifier
.MODEL DI_RS1MB D  ( IS=948n RS=81.3m BV=1.00k IBV=5.00u
+ CJO=27.7p  M=0.333 N=2.48 TT=720n )
**************************************************************************************************************************************