*SRC=RS2J;DI_RS2J;Diodes;Si;  600V  1.50A  250ns   Diodes Inc. Fast Rectifier
.MODEL DI_RS2J D  ( IS=169u RS=4.81m BV=600 IBV=5.00u
+ CJO=55.5p  M=0.333 N=6.02 TT=360n )
******************************************************************************************************