*SRC=RS1BB;DI_RS1BB;Diodes;Si;  100V  1.00A  150ns   Diodes Inc. Fast Rectifier
.MODEL DI_RS1BB D  ( IS=948n RS=81.3m BV=100 IBV=5.00u
+ CJO=27.7p  M=0.333 N=2.48 TT=216n )
**************************************************************************************************************************************