*SRC=SF10HG;DI_SF10HG;Diodes;Si; 500V 1.00A 50.0ns Diodes Inc. -
.MODEL DI_SF10HG D ( IS=13.5u RS=30.9m BV=500 IBV=10.0u
+ CJO=92.5p M=0.333 N=5.40 TT=72.0n )