*SRC=SF10JG;DI_SF10JG;Diodes;Si;  600V  1.00A  50.0ns   Diodes Inc. -
.MODEL DI_SF10JG D  ( IS=13.5u RS=30.9m BV=600 IBV=10.0u
+ CJO=92.5p  M=0.333 N=5.40 TT=72.0n )