*SRC=UF1003;DI_UF1003;Diodes;Si;  200V  1.00A  50.0ns   Diodes Inc. 1.0A Ultra-Fast Rectifier
.MODEL DI_UF1003 D  ( IS=125u RS=17.5m BV=200 IBV=5.00u
+ CJO=79.6p  M=0.333 N=3.75 TT=72.0n )