*SRC=US1K;DI_US1K;Diodes;Si;  800V  1.00A  75.0ns   Diodes Inc. -
.MODEL DI_US1K D  ( IS=709n RS=82.3m BV=800 IBV=5.00u
+ CJO=18.5p  M=0.333 N=3.23 TT=108n )