*SRC=UF1006;DI_UF1006;Diodes;Si;  800V  1.00A  50.0ns   Diodes Inc. 1.0A Ultra-Fast Rectifier
.MODEL DI_UF1006 D  ( IS=13.9u RS=56.6m BV=800 IBV=5.00u
+ CJO=46.4p  M=0.333 N=4.11 TT=72.0n )