*SRC=UF3007;Di_UF3007;Diodes;Si;  1.00kV  3.00A  75.0ns   Diodes Inc. Ultra-Fast Rectifier
.MODEL Di_UF3007 D  ( IS=4.50u RS=14.1m BV=1.00k IBV=10.0u
+ CJO=92.5p  M=0.333 N=4.29 TT=108n )