*SRC=US1A;DI_US1A;Diodes;Si;  50.0V  1.00A  50.0ns   Diodes Inc. -
.MODEL DI_US1A D  ( IS=667n RS=72.0m BV=50.0 IBV=5.00u
+ CJO=37.0p  M=0.333 N=2.41 TT=72.0n )