*SRC=ES1G;DI_ES1G;Diodes;Si;  400V  1.00A  20.0ns   Diodes Inc. 
.MODEL DI_ES1G D  ( IS=373n RS=64.3m BV=400 IBV=5.00u
+ CJO=18.5p  M=0.333 N=2.84 TT=28.8n )