*SRC=PR1007G;DI_PR1007G;Diodes;Si;  1.00kV  1.00A  500ns   Diodes Inc. Fast
Rectifier
.MODEL DI_PR1007G D  ( IS=5.00n RS=29.8m BV=1.00k IBV=5.00u
+ CJO=19.9p  M=0.333 N=1.72 TT=720n )