*SRC=RS1JB;DI_RS1JB;Diodes;Si;  600V  1.00A  250ns   Diodes Inc. Fast Rectifier
.MODEL DI_RS1JB D  ( IS=948n RS=81.3m BV=600 IBV=5.00u
+ CJO=27.7p  M=0.333 N=2.48 TT=360n )
**************************************************************************************************************************************