*SRC=RS2BA;DI_RS2BA;Diodes;Si;  100V  1.50A  150ns   Diodes Inc. Fast Rectifier
.MODEL DI_RS2BA D  ( IS=169u RS=4.81m BV=100 IBV=5.00u
+ CJO=55.5p  M=0.333 N=6.02 TT=216n )
******************************************************************************************************