*SRC=RS2DA;DI_RS2DA;Diodes;Si;  200V  1.50A  150ns   Diodes Inc. Fast Rectifier
.MODEL DI_RS2DA D  ( IS=169u RS=4.81m BV=200 IBV=5.00u
+ CJO=55.5p  M=0.333 N=6.02 TT=216n )
******************************************************************************************************