*SRC=RS2A;DI_RS2A;Diodes;Si;  50.0V  1.50A  150ns   Diodes Inc. Fast Rectifier
.MODEL DI_RS2A D  ( IS=169u RS=4.81m BV=50.0 IBV=5.00u
+ CJO=55.5p  M=0.333 N=6.02 TT=216n )
******************************************************************************************************