*SRC=RS2KA;DI_RS2KA;Diodes;Si;  800V  1.50A  500ns   Diodes Inc. Fast Rectifier
.MODEL DI_RS2KA D  ( IS=169u RS=4.81m BV=800 IBV=5.00u
+ CJO=55.5p  M=0.333 N=6.02 TT=720n )
******************************************************************************************************