*SRC=SF10AG;DI_SF10AG;Diodes;Si;  50.0V  1.00A  35.0ns   Diodes Inc. 
.MODEL DI_SF10AG D  ( IS=1.42n RS=42.0m BV=50.0 IBV=10.0u
+ CJO=139p  M=0.333 N=1.70 TT=50.4n )