*SRC=ES1B;DI_ES1B;Diodes;Si;  100V  1.00A  20.0ns   Diodes Inc. 
.MODEL DI_ES1B D  ( IS=123n RS=42.0m BV=100 IBV=5.00u
+ CJO=18.5p  M=0.333 N=2.12 TT=28.8n )