Version 4
SHEET 1 880 680
WIRE 96 192 80 192
WIRE 144 192 96 192
WIRE 272 192 224 192
WIRE 320 192 272 192
WIRE 96 224 80 224
WIRE 144 224 96 224
FLAG 96 192 in
FLAG 96 224 ctrl
FLAG 272 192 out
SYMBOL EIT_Digital\\EXOR_2 144 208 R0
SYMATTR InstName U1
SYMBOL EIT_Digital\\INVERTER -112 144 R0
SYMATTR InstName U2
