.subckt wirecross 1 2 3 4
r1 1 3 1
r2 2 4 1
.end