Version 4
SHEET 1 880 680
WIRE 224 0 160 0
WIRE 368 0 224 0
WIRE 224 16 224 0
WIRE 368 16 368 0
WIRE 624 48 592 48
WIRE 656 48 624 48
WIRE 592 80 592 48
WIRE 448 96 368 96
WIRE 512 96 448 96
WIRE 224 128 224 96
WIRE 256 128 224 128
WIRE 416 128 256 128
WIRE 224 144 224 128
WIRE 368 144 368 96
WIRE 416 144 416 128
WIRE 512 144 416 144
WIRE 592 176 592 160
WIRE -32 192 -64 192
WIRE 0 192 -32 192
WIRE 112 192 80 192
WIRE 144 192 112 192
WIRE 160 192 144 192
WIRE 464 192 432 192
WIRE 464 240 464 192
WIRE -64 256 -64 192
WIRE 112 256 112 192
WIRE 224 256 224 240
WIRE 272 256 224 256
WIRE 304 256 272 256
WIRE 368 256 368 240
WIRE 368 256 304 256
WIRE 304 272 304 256
WIRE -64 368 -64 336
WIRE 112 368 112 336
WIRE 304 384 304 352
FLAG 304 384 0
FLAG 256 128 c1
FLAG 448 96 c2
FLAG 112 368 0
FLAG -64 368 0
FLAG 464 240 0
FLAG -32 192 1
FLAG 144 192 in
FLAG 272 256 e12
FLAG 592 176 0
FLAG 624 48 out
SYMBOL EIT_Semiconductors\\npn 160 144 R0
SYMATTR InstName Q1
SYMATTR Value bc547b
SYMBOL EIT_Semiconductors\\npn 432 144 M0
SYMATTR InstName Q2
SYMATTR Value bc547b
SYMBOL source-I 304 352 R180
WINDOW 0 29 73 Left 2
WINDOW 3 29 17 Left 2
SYMATTR InstName I1
SYMATTR Value 2m
SYMBOL res 208 0 R0
SYMATTR InstName R1
SYMATTR Value 1k
SYMBOL res 352 0 R0
SYMATTR InstName R2
SYMATTR Value 1k
SYMBOL source-Vmarker 160 0 R0
SYMATTR Value V=1V
SYMATTR InstName U1
SYMBOL res 96 240 R0
SYMATTR InstName R3
SYMATTR Value 1
SYMBOL res -16 208 R270
WINDOW 0 25 56 VTop 2
WINDOW 3 7 56 VBottom 2
SYMATTR InstName R4
SYMATTR Value 2
SYMBOL source-V -64 240 R0
WINDOW 123 0 0 Left 2
WINDOW 39 0 0 Left 2
SYMATTR InstName V1
SYMATTR Value SINE(0 0.0707 1k)
SYMBOL crtl-V-V 592 64 R0
SYMATTR InstName E1
SYMATTR Value 1
TEXT -72 56 Left 2 !.tran 2m
TEXT -80 96 Left 2 !.four 1k v(c2,c1)
