Version 4
SHEET 1 880 680
WIRE 208 32 144 32
WIRE 208 64 208 32
WIRE 160 80 16 80
WIRE -192 192 -224 192
WIRE -96 192 -112 192
WIRE 16 192 16 80
WIRE 16 192 -32 192
WIRE 32 192 16 192
WIRE 80 192 32 192
WIRE 208 192 208 160
WIRE 208 192 160 192
WIRE 272 192 208 192
WIRE 288 192 272 192
WIRE -224 224 -224 192
WIRE 208 224 208 192
WIRE 16 304 16 192
WIRE 160 304 16 304
WIRE -224 336 -224 304
WIRE 208 336 208 320
FLAG 208 336 0
FLAG 272 192 d
FLAG 32 192 g
FLAG -224 336 0
SYMBOL EIT_Semiconductors\\pmos_o 160 64 R0
SYMATTR InstName M1
SYMATTR Value PMOSx
SYMBOL EIT_Semiconductors\\nmos 160 224 R0
SYMATTR InstName M2
SYMATTR Value NMOSx
SYMBOL res 64 208 R270
WINDOW 0 25 56 VTop 2
WINDOW 3 7 56 VBottom 2
SYMATTR InstName RG
SYMATTR Value 2.2meg
SYMBOL source-Vmarker 144 32 R0
SYMATTR Value V=10V
SYMATTR InstName U1
SYMBOL cap -96 208 R270
WINDOW 0 32 32 VTop 2
WINDOW 3 0 32 VBottom 2
SYMATTR InstName C1
SYMATTR Value 10n
SYMBOL res -208 208 R270
WINDOW 0 25 56 VTop 2
WINDOW 3 7 56 VBottom 2
SYMATTR InstName R1
SYMATTR Value 100k
SYMBOL source-V -224 208 R0
SYMATTR InstName V1
SYMATTR Value AC 1
TEXT -208 -8 Left 2 !.model pmosx pmos (KP=222u VT0=-2 lambda=0.03)
TEXT -200 376 Left 2 !.model nmosx nmos (KP=222u VT0=2 lambda=0.03)
TEXT -252 396 Left 2 !;op
TEXT -248 32 Left 2 !.ac oct 5 1 100k
