Version 4
SHEET 1 1072 680
WIRE 560 -32 256 -32
WIRE 480 32 384 32
WIRE 560 32 560 -32
WIRE 576 32 560 32
WIRE 848 32 656 32
WIRE 896 32 848 32
WIRE 128 48 64 48
WIRE 192 48 128 48
WIRE 256 48 256 -32
WIRE 256 48 192 48
WIRE 304 48 256 48
WIRE 192 64 192 48
WIRE 736 80 720 80
WIRE 64 96 64 48
WIRE 304 96 288 96
WIRE 896 96 896 32
WIRE 896 96 800 96
WIRE 288 112 288 96
WIRE 560 112 560 32
WIRE 736 112 560 112
WIRE 192 160 192 144
WIRE 272 160 192 160
WIRE 288 160 272 160
WIRE 384 160 352 160
WIRE 480 160 480 32
WIRE 480 160 384 160
WIRE 192 176 192 160
WIRE 896 192 896 96
WIRE 64 208 64 160
WIRE 720 272 720 80
WIRE 896 272 720 272
WIRE 192 288 192 256
WIRE 896 288 896 272
WIRE 896 400 896 368
FLAG 192 288 0
FLAG 128 48 a
FLAG 272 160 b
FLAG 384 160 out
FLAG 288 112 0
FLAG 384 112 0
FLAG 896 400 0
FLAG 848 32 out2
FLAG 64 208 0
SYMBOL res 176 48 R0
SYMATTR InstName R1
SYMATTR Value 1k
SYMBOL res 176 160 R0
SYMATTR InstName R2
SYMATTR Value 1k
SYMBOL cap 352 144 R90
WINDOW 0 0 32 VBottom 2
WINDOW 3 32 32 VTop 2
SYMATTR InstName C1
SYMATTR Value 100n
SYMBOL cap 48 96 R0
SYMATTR InstName C2
SYMATTR Value 10n ic=1m
SYMBOL crtl-V-V 384 16 R0
SYMATTR InstName E1
SYMATTR Value 1
SYMBOL res 672 16 R90
WINDOW 0 7 56 VBottom 2
WINDOW 3 25 56 VTop 2
SYMATTR InstName R3
SYMATTR Value {ra}
SYMBOL EIT_Semiconductors\\op_3 768 96 R0
SYMATTR InstName U1
SYMATTR Value2 FT=100Meg SR=100
SYMATTR Value Vp=10 Vm=-10 Ilim=200m
SYMBOL res 880 176 R0
SYMATTR InstName R4
SYMATTR Value 1k
SYMBOL res 880 272 R0
SYMATTR InstName R5
SYMATTR Value 1k
TEXT 344 240 Left 2 !.tran 20m uic
TEXT 144 328 Left 2 ;Ra-gnd= 2kOhm + j*omega*100mH
TEXT 16 368 Left 2 ;fr=1/(2piWurzel(10nF*100mH))=5,033kHz
TEXT 552 264 Left 2 !.param ra=4k
TEXT 328 296 Left 2 ;.step param ra list 10k 5k 4k
