Version 4
SHEET 1 880 680
WIRE 64 0 48 0
WIRE 192 0 64 0
WIRE 64 32 64 0
WIRE 192 96 192 80
WIRE 192 112 192 96
WIRE 64 192 64 112
WIRE 96 192 64 192
WIRE 144 192 96 192
WIRE 192 224 192 208
WIRE 64 240 64 192
WIRE 192 240 192 224
WIRE 64 336 64 320
WIRE 192 336 192 320
FLAG 64 336 0
FLAG 192 336 0
FLAG 96 192 g
FLAG 192 224 s
FLAG 192 96 d
SYMBOL EIT_Semiconductors\\nmos_b 144 112 R0
SYMATTR InstName M1
SYMATTR Value nx
SYMBOL res 176 224 R0
SYMATTR InstName RS
SYMATTR Value 2k
SYMBOL res 176 -16 R0
SYMATTR InstName RD
SYMATTR Value {rd+1m}
SYMBOL source-Vmarker 48 0 R0
SYMATTR Value V=10V
SYMATTR InstName U1
SYMBOL res 48 16 R0
SYMATTR InstName R1
SYMATTR Value 70k
SYMBOL res 48 224 R0
SYMATTR InstName R2
SYMATTR Value 30k
TEXT 280 24 Left 2 !.param rd=10k
TEXT 72 -32 Left 2 !.model nx nmos (KP=2m VT0=2)
TEXT 250 136 Left 2 !;op
TEXT 248 104 Left 2 !.dc param rd 0 50k 1k
