Version 4
SHEET 1 880 680
WIRE 64 -48 32 -48
WIRE 192 -48 64 -48
WIRE 64 -16 64 -48
WIRE 192 -16 192 -48
WIRE 192 96 192 64
WIRE 224 96 192 96
WIRE 272 96 224 96
WIRE 64 144 64 64
WIRE 96 144 64 144
WIRE 128 144 96 144
WIRE 192 208 192 192
WIRE 224 208 192 208
WIRE 272 208 224 208
WIRE 64 224 64 144
WIRE 192 224 192 208
WIRE 64 336 64 304
WIRE 192 336 192 304
FLAG 64 336 0
FLAG 192 336 0
FLAG 96 144 b
FLAG 224 96 e
FLAG 224 208 c
SYMBOL EIT_Semiconductors\\pnp_o 128 96 R0
SYMATTR InstName Q1
SYMATTR Value BC557B
SYMBOL res 48 -32 R0
SYMATTR InstName R1
SYMATTR Value 22k
SYMBOL res 48 208 R0
SYMATTR InstName R2
SYMATTR Value 120k
SYMBOL res 176 208 R0
SYMATTR InstName RC
SYMATTR Value 4k
SYMBOL res 176 -32 R0
SYMATTR InstName RE
SYMATTR Value 1k
SYMBOL source-Vmarker 32 -48 R0
SYMATTR Value V=15V
SYMATTR InstName U1
TEXT -64 32 Left 2 !.op
