Version 4
SHEET 1 932 680
WIRE 576 0 480 0
WIRE 672 0 576 0
WIRE 576 32 576 0
WIRE 672 96 672 80
WIRE 752 96 672 96
WIRE 768 96 752 96
WIRE 848 96 832 96
WIRE 864 96 848 96
WIRE 672 112 672 96
WIRE 864 112 864 96
WIRE 464 160 416 160
WIRE 576 160 576 112
WIRE 576 160 528 160
WIRE 608 160 576 160
WIRE 416 176 416 160
WIRE 672 224 672 208
WIRE 704 224 672 224
WIRE 864 224 864 192
WIRE 416 272 416 256
WIRE 672 336 672 304
FLAG 672 336 0
FLAG 752 96 c
FLAG 416 272 0
FLAG 864 224 0
FLAG 848 96 out
FLAG 704 224 e
SYMBOL EIT_Semiconductors\\npn 608 112 R0
SYMATTR InstName Q2
SYMATTR Value NPNx
SYMBOL res 656 -16 R0
SYMATTR InstName R2
SYMATTR Value 5k
SYMBOL source-Vmarker 480 0 R0
SYMATTR Value V=10V
SYMATTR InstName U2
SYMBOL source-V 416 160 R0
WINDOW 0 28 59 Left 2
WINDOW 3 18 89 Left 2
WINDOW 123 0 0 Left 2
WINDOW 39 0 0 Left 2
SYMATTR InstName V2
SYMATTR Value SINE(0 400m 1k)
SYMBOL cap 528 144 R90
WINDOW 0 0 32 VBottom 2
WINDOW 3 32 32 VTop 2
SYMATTR InstName C1
SYMATTR Value 10µ
SYMBOL cap 768 112 R270
WINDOW 0 32 32 VTop 2
WINDOW 3 0 32 VBottom 2
SYMATTR InstName C2
SYMATTR Value 100µ
SYMBOL res 848 96 R0
SYMATTR InstName RL
SYMATTR Value 5k
SYMBOL res 560 16 R0
WINDOW 3 -202 63 Left 2
SYMATTR Value {(10-0.2-0.65)/5u}
SYMATTR InstName R3
SYMBOL res 656 208 R0
SYMATTR InstName RE
SYMATTR Value 200
TEXT 400 -48 Left 2 !.model npnx npn (IS=1.e-13 bf=200)
TEXT 448 296 Left 2 !.tran 2m
