Version 4
SHEET 1 932 680
WIRE 576 0 480 0
WIRE 672 0 576 0
WIRE 576 32 576 0
WIRE 672 96 672 80
WIRE 752 96 672 96
WIRE 768 96 752 96
WIRE 864 96 832 96
WIRE 672 112 672 96
WIRE 864 112 864 96
WIRE 320 160 304 160
WIRE 352 160 320 160
WIRE 464 160 432 160
WIRE 560 160 528 160
WIRE 576 160 576 112
WIRE 576 160 560 160
WIRE 608 160 576 160
WIRE 304 176 304 160
WIRE 672 224 672 208
WIRE 864 224 864 192
WIRE 304 272 304 256
WIRE 672 320 672 304
FLAG 672 320 0
FLAG 752 96 c
FLAG 304 272 0
FLAG 864 224 0
FLAG 560 160 b
FLAG 864 96 out
FLAG 320 160 in
SYMBOL EIT_Semiconductors\\npn 608 112 R0
SYMATTR InstName Q1
SYMATTR Value npnx
SYMBOL res 656 -16 R0
SYMATTR InstName RC
SYMATTR Value 5k
SYMBOL source-Vmarker 480 0 R0
SYMATTR Value V=10V
SYMATTR InstName U2
SYMBOL source-V 304 160 R0
WINDOW 0 28 59 Left 2
WINDOW 3 18 89 Left 2
WINDOW 123 18 117 Left 2
WINDOW 39 0 0 Left 2
SYMATTR InstName V1
SYMATTR Value SINE(0 10m 10k)
SYMATTR Value2 AC 1
SYMBOL cap 464 176 R270
WINDOW 0 32 32 VTop 2
WINDOW 3 0 32 VBottom 2
SYMATTR InstName C1
SYMATTR Value 257n
SYMBOL cap 768 112 R270
WINDOW 0 32 32 VTop 2
WINDOW 3 0 32 VBottom 2
SYMATTR InstName C2
SYMATTR Value 109n
SYMBOL res 848 96 R0
SYMATTR InstName RL
SYMATTR Value 10k
SYMBOL res 560 16 R0
WINDOW 3 -144 72 Left 2
SYMATTR Value {(10-0.65)/5u}
SYMATTR InstName RB
SYMBOL res 336 176 R270
WINDOW 0 25 56 VTop 2
WINDOW 3 7 56 VBottom 2
SYMATTR InstName R1
SYMATTR Value 1k
SYMBOL res 656 208 R0
SYMATTR InstName R2
SYMATTR Value 100
TEXT 400 -48 Left 2 !.model npnx npn (IS=1.e-13 bf=200)
TEXT 296 32 Left 2 !;ac oct 5 1 1T
TEXT 296 56 Left 2 !.tran 2000u
TEXT 400 312 Left 2 !.four 10kHz V(out)
