Version 4
SHEET 1 932 680
WIRE 576 0 480 0
WIRE 672 0 576 0
WIRE 576 32 576 0
WIRE 672 96 672 80
WIRE 752 96 672 96
WIRE 768 96 752 96
WIRE 864 96 832 96
WIRE 672 112 672 96
WIRE 864 112 864 96
WIRE 464 160 416 160
WIRE 576 160 576 112
WIRE 576 160 528 160
WIRE 608 160 576 160
WIRE 416 176 416 160
WIRE 672 224 672 208
WIRE 864 224 864 192
WIRE 416 272 416 256
WIRE 752 304 688 304
WIRE 752 400 752 384
WIRE 832 400 752 400
WIRE 864 400 832 400
WIRE 752 416 752 400
WIRE 656 448 560 448
WIRE 560 464 560 448
WIRE 656 464 656 448
WIRE 688 464 656 464
WIRE 752 528 752 512
WIRE 560 560 560 544
FLAG 752 528 0
FLAG 832 400 c
FLAG 560 560 0
FLAG 672 224 0
FLAG 752 96 C2
FLAG 416 272 0
FLAG 864 224 0
SYMBOL EIT_Semiconductors\\npn 688 416 R0
SYMATTR InstName Q1
SYMATTR Value NPNx
SYMBOL res 736 288 R0
SYMATTR InstName R1
SYMATTR Value 5k
SYMBOL source-Vmarker 688 304 R0
SYMATTR Value V=10V
SYMATTR InstName U1
SYMBOL source-V 560 448 R0
WINDOW 3 26 118 Left 2
WINDOW 123 0 0 Left 2
WINDOW 39 0 0 Left 2
SYMATTR InstName V1
SYMATTR Value SINE(595.5mV 10m 1k)
SYMBOL EIT_Semiconductors\\npn 608 112 R0
SYMATTR InstName Q2
SYMATTR Value NPNx
SYMBOL res 656 -16 R0
SYMATTR InstName R2
SYMATTR Value 5k
SYMBOL source-Vmarker 480 0 R0
SYMATTR Value V=10V
SYMATTR InstName U2
SYMBOL source-V 416 160 R0
WINDOW 0 28 59 Left 2
WINDOW 3 18 89 Left 2
WINDOW 123 0 0 Left 2
WINDOW 39 0 0 Left 2
SYMATTR InstName V2
SYMATTR Value SINE(0 10m 1k)
SYMBOL cap 464 176 R270
WINDOW 0 32 32 VTop 2
WINDOW 3 0 32 VBottom 2
SYMATTR InstName C1
SYMATTR Value 100µ
SYMBOL cap 768 112 R270
WINDOW 0 32 32 VTop 2
WINDOW 3 0 32 VBottom 2
SYMATTR InstName C2
SYMATTR Value 100µ
SYMBOL res 848 96 R0
SYMATTR InstName RL
SYMATTR Value 10k
SYMBOL res 560 16 R0
WINDOW 3 -144 72 Left 2
SYMATTR InstName R3
SYMATTR Value {(10-0.65)/5u}
TEXT 464 368 Left 2 !;dc v1 0.5 0.7 0.1m
TEXT 400 -48 Left 2 !.model npnx npn (IS=1.e-13 bf=200)
TEXT 448 408 Left 2 !.tran 2m
