Version 4
SHEET 1 880 680
WIRE 208 32 144 32
WIRE 560 32 208 32
WIRE 208 64 208 32
WIRE 560 64 560 32
WIRE 160 80 16 80
WIRE 512 80 480 80
WIRE -48 192 -96 192
WIRE 16 192 16 80
WIRE 16 192 -48 192
WIRE 32 192 16 192
WIRE 80 192 32 192
WIRE 208 192 208 160
WIRE 208 192 160 192
WIRE 272 192 208 192
WIRE 336 192 272 192
WIRE 400 192 336 192
WIRE 480 192 480 80
WIRE 480 192 400 192
WIRE 528 192 512 192
WIRE 560 192 560 160
WIRE 560 192 528 192
WIRE -96 224 -96 192
WIRE 208 224 208 192
WIRE 560 224 560 192
WIRE 400 240 400 192
WIRE 16 304 16 192
WIRE 160 304 16 304
WIRE 480 304 480 192
WIRE 512 304 480 304
WIRE -96 320 -96 288
WIRE 208 336 208 320
WIRE 400 336 400 304
WIRE 560 336 560 320
WIRE -48 448 -48 192
WIRE 128 448 -48 448
WIRE 336 448 336 192
WIRE 336 448 192 448
FLAG 208 336 0
FLAG 272 192 d
FLAG 32 192 g
FLAG -96 320 0
FLAG 400 336 0
FLAG 560 336 0
FLAG 528 192 d2
SYMBOL EIT_Semiconductors\\pmos_o 160 64 R0
SYMATTR InstName M1
SYMATTR Value PMOSx
SYMBOL EIT_Semiconductors\\nmos 160 224 R0
SYMATTR InstName M2
SYMATTR Value NMOSx
SYMBOL source-Vmarker 144 32 R0
SYMATTR Value V=10V
SYMATTR InstName U1
SYMBOL cap -112 224 R0
SYMATTR InstName C1
SYMATTR Value 20p
SYMBOL cap 384 240 R0
SYMATTR InstName C2
SYMATTR Value 20p
SYMBOL LTspice_original\\Misc\\xtal 192 432 R90
WINDOW 0 0 32 VBottom 2
WINDOW 3 32 32 VTop 2
SYMATTR InstName C3
SYMATTR Value 0.25p
SYMATTR SpiceLine Rser=100 Lser=100m Cpar=4p
SYMBOL EIT_Semiconductors\\pmos_o 512 64 R0
SYMATTR InstName M3
SYMATTR Value PMOSx
SYMBOL EIT_Semiconductors\\nmos 512 224 R0
SYMATTR InstName M4
SYMATTR Value NMOSx
SYMBOL res 176 176 R90
WINDOW 0 7 56 VBottom 2
WINDOW 3 25 56 VTop 2
SYMATTR InstName R1
SYMATTR Value 200k
TEXT -208 -8 Left 2 !.model pmosx pmos (KP=222u VT0=-2 lambda=0.03)
TEXT -200 376 Left 2 !.model nmosx nmos (KP=222u VT0=2 lambda=0.03)
TEXT -252 396 Left 2 !;op
TEXT -248 32 Left 2 !;ac oct 5 1 100k
TEXT -264 80 Left 2 !.tran 1m uic
