Version 4
SHEET 1 880 680
WIRE 272 -32 224 -32
WIRE 304 -32 272 -32
WIRE 224 -16 224 -32
WIRE 224 80 224 64
WIRE 272 80 224 80
WIRE 288 80 272 80
WIRE 224 96 224 80
WIRE 16 144 -32 144
WIRE 128 144 96 144
WIRE 160 144 128 144
WIRE -32 192 -32 144
WIRE 224 208 224 192
WIRE 288 208 224 208
WIRE 304 208 288 208
WIRE -32 304 -32 272
WIRE 224 304 224 288
FLAG 224 304 0
FLAG 272 80 col
FLAG 128 144 bas
FLAG 272 -32 plus
FLAG -32 304 0
FLAG 288 208 em
SYMBOL EIT_Semiconductors\\npn 160 96 R0
SYMATTR InstName Q1
SYMATTR Value BC547B
SYMBOL res 0 160 R270
WINDOW 0 25 56 VTop 2
WINDOW 3 7 56 VBottom 2
SYMATTR InstName RB
SYMATTR Value 2meg
SYMBOL res 208 -32 R0
SYMATTR InstName RC
SYMATTR Value 10k
SYMBOL res 208 192 R0
SYMATTR InstName RE
SYMATTR Value 3k
SYMBOL source-V -32 176 R0
SYMATTR InstName Vin
SYMATTR Value 1
SYMBOL source-Vmarker 304 -32 M0
SYMATTR Value V=10V
SYMATTR InstName U1
TEXT -40 -8 Left 2 !.dc Vin -1 10 50m
TEXT -56 -72 Left 2 !.model my_npn npn(IS=1e-15 bf={beta} )
TEXT -48 40 Left 2 !.param beta=200
TEXT -48 -104 Left 2 ;.step param beta list 100 200 300
