Version 4
SHEET 1 908 680
WIRE 832 -16 768 -16
WIRE 832 0 832 -16
WIRE 768 16 768 -16
WIRE 768 16 656 16
WIRE 144 32 96 32
WIRE 240 32 144 32
WIRE 240 48 240 32
WIRE 656 48 656 16
WIRE 768 48 768 16
WIRE 832 80 832 64
WIRE 144 128 144 32
WIRE 192 128 144 128
WIRE -144 176 -176 176
WIRE -48 176 -64 176
WIRE 48 176 16 176
WIRE 80 176 48 176
WIRE 208 176 160 176
WIRE 240 176 240 144
WIRE 240 176 208 176
WIRE 384 192 352 192
WIRE 480 192 464 192
WIRE 576 192 544 192
WIRE 608 192 576 192
WIRE 736 192 688 192
WIRE 768 192 768 128
WIRE 768 192 736 192
WIRE 832 192 832 160
WIRE 832 192 768 192
WIRE -176 208 -176 176
WIRE 240 224 240 176
WIRE 352 224 352 192
WIRE 768 240 768 192
WIRE 48 304 48 176
WIRE 96 304 48 304
WIRE 192 304 96 304
WIRE -176 320 -176 288
WIRE 576 320 576 192
WIRE 624 320 576 320
WIRE 720 320 624 320
WIRE 240 336 240 320
WIRE 352 336 352 304
WIRE 768 352 768 336
FLAG 240 336 0
FLAG 208 176 d
FLAG -176 320 0
FLAG 96 304 g
FLAG 768 352 0
FLAG 736 192 d2
FLAG 352 336 0
FLAG 624 320 g2
FLAG 656 48 0
SYMBOL EIT_Semiconductors\\nmos 192 48 R0
SYMATTR InstName M2
SYMATTR Value nmos2
SYMBOL EIT_Semiconductors\\nmos 192 224 R0
SYMATTR InstName M1
SYMATTR Value nmos1
SYMBOL res 176 160 R90
WINDOW 0 7 56 VBottom 2
WINDOW 3 25 56 VTop 2
SYMATTR InstName RG
SYMATTR Value 10MEG
SYMBOL source-Vmarker 96 32 R0
SYMATTR Value V=6V
SYMATTR InstName U1
SYMBOL cap -48 192 R270
WINDOW 0 32 32 VTop 2
WINDOW 3 0 32 VBottom 2
SYMATTR InstName C1
SYMATTR Value 1n
SYMBOL res -160 192 R270
WINDOW 0 25 56 VTop 2
WINDOW 3 7 56 VBottom 2
SYMATTR InstName R1
SYMATTR Value 100k
SYMBOL source-V -176 192 R0
WINDOW 123 28 109 Left 2
WINDOW 39 0 0 Left 2
SYMATTR InstName V1
SYMATTR Value SINE(0 0.5 1k)
SYMATTR Value2 AC 1
SYMBOL EIT_Semiconductors\\nmos 720 240 R0
SYMATTR InstName M3
SYMATTR Value nmos1
SYMBOL res 704 176 R90
WINDOW 0 7 56 VBottom 2
WINDOW 3 25 56 VTop 2
SYMATTR InstName RG1
SYMATTR Value 10MEG
SYMBOL cap 480 208 R270
WINDOW 0 32 32 VTop 2
WINDOW 3 0 32 VBottom 2
SYMATTR InstName C2
SYMATTR Value 1n
SYMBOL res 368 208 R270
WINDOW 0 25 56 VTop 2
WINDOW 3 7 56 VBottom 2
SYMATTR InstName R2
SYMATTR Value 100k
SYMBOL source-V 352 208 R0
WINDOW 123 28 109 Left 2
WINDOW 39 0 0 Left 2
SYMATTR InstName V2
SYMATTR Value SINE(0 0.5 1k)
SYMATTR Value2 AC 1
SYMBOL source-I 768 128 R180
WINDOW 0 29 73 Left 2
WINDOW 3 29 17 Left 2
SYMATTR InstName I1
SYMATTR Value 436µ
SYMBOL res 816 64 R0
SYMATTR InstName R3
SYMATTR Value 1.7k
SYMBOL cap 816 0 R0
SYMATTR InstName C3
SYMATTR Value 100µ
TEXT -168 408 Left 2 !.model nmos1 nmos (KP=3.2m VT0=2)
TEXT -168 376 Left 2 !.model nmos2 nmos (KP=0.4m VT0=2)
TEXT -170 56 Left 2 !;op
TEXT -168 80 Left 2 !;ac oct 5 1 100k
TEXT -168 112 Left 2 !.tran 20m
TEXT -176 16 Left 2 !.four 1kHz v(d)
TEXT 566 344 Left 2 !;op
