Version 4
SHEET 1 880 680
WIRE 208 -48 144 -48
WIRE 208 -32 208 -48
WIRE -112 96 -128 96
WIRE -16 96 -32 96
WIRE 64 96 48 96
WIRE 80 96 64 96
WIRE 176 96 160 96
WIRE 208 96 208 48
WIRE 208 96 176 96
WIRE 240 96 208 96
WIRE 336 96 304 96
WIRE 368 96 336 96
WIRE 208 128 208 96
WIRE 368 128 368 96
WIRE -128 144 -128 96
WIRE 64 208 64 96
WIRE 96 208 64 208
WIRE 160 208 96 208
WIRE -128 240 -128 224
WIRE 208 240 208 224
WIRE 368 240 368 208
FLAG 208 240 0
FLAG 176 96 d
FLAG 96 208 g
FLAG 368 240 0
FLAG -128 240 0
FLAG 336 96 rl
SYMBOL EIT_Semiconductors\\nmos 160 128 R0
SYMATTR InstName M1
SYMATTR Value nx
SYMBOL res 64 112 R270
WINDOW 0 25 56 VTop 2
WINDOW 3 7 56 VBottom 2
SYMATTR InstName RG
SYMATTR Value 560k
SYMBOL res 192 -48 R0
SYMATTR InstName RD
SYMATTR Value 5.6k
SYMBOL source-Vmarker 144 -48 R0
SYMATTR Value V=10V
SYMATTR InstName U1
SYMBOL cap 240 112 R270
WINDOW 0 32 32 VTop 2
WINDOW 3 0 32 VBottom 2
SYMATTR InstName C2
SYMATTR Value 1µ
SYMBOL res 352 112 R0
SYMATTR InstName RL
SYMATTR Value 2.2k
SYMBOL cap -16 112 R270
WINDOW 0 32 32 VTop 2
WINDOW 3 0 32 VBottom 2
SYMATTR InstName C1
SYMATTR Value 0.1µ
SYMBOL res -128 112 R270
WINDOW 0 25 56 VTop 2
WINDOW 3 7 56 VBottom 2
SYMATTR InstName R1
SYMATTR Value 10k
SYMBOL source-V -128 128 R0
WINDOW 123 28 109 Left 2
WINDOW 39 0 0 Left 2
SYMATTR InstName V1
SYMATTR Value ""
SYMATTR Value2 AC 1
TEXT -56 280 Left 2 !.model nx nmos (KP=4m VT0=2.5)
TEXT -16 0 Left 2 !;op
TEXT -144 -48 Left 2 !.ac oct 5 1 100k
