Version 4
SHEET 1 880 680
WIRE 224 64 96 64
WIRE 304 64 224 64
WIRE 96 80 96 64
WIRE 224 80 224 64
WIRE 224 176 224 160
WIRE 272 176 224 176
WIRE 288 176 272 176
WIRE 400 176 352 176
WIRE 416 176 400 176
WIRE 224 192 224 176
WIRE 416 224 416 176
WIRE -96 240 -128 240
WIRE 0 240 -16 240
WIRE 96 240 96 160
WIRE 96 240 64 240
WIRE 144 240 96 240
WIRE 160 240 144 240
WIRE -128 288 -128 240
WIRE 96 288 96 240
WIRE 224 304 224 288
WIRE 256 304 224 304
WIRE 288 304 256 304
WIRE 224 320 224 304
WIRE 416 320 416 304
WIRE -128 416 -128 368
WIRE 96 416 96 368
WIRE 224 416 224 400
FLAG 224 416 0
FLAG 96 416 0
FLAG -128 416 0
FLAG 416 320 0
FLAG 400 176 out
FLAG 272 176 c
FLAG 144 240 b
FLAG 256 304 e
SYMBOL EIT_Semiconductors\\npn 160 192 R0
SYMATTR InstName Q1
SYMATTR Value 2N2222
SYMBOL res 208 64 R0
SYMATTR InstName RC
SYMATTR Value 10k
SYMBOL source-Vmarker 304 64 M0
SYMATTR Value V=9V
SYMATTR InstName U1
SYMBOL res 208 304 R0
SYMATTR InstName RE
SYMATTR Value 1k
SYMBOL res 80 272 R0
SYMATTR InstName R2
SYMATTR Value 47k
SYMBOL res 80 64 R0
SYMATTR InstName R1
SYMATTR Value 305k
SYMBOL res -112 256 R270
WINDOW 0 25 56 VTop 2
WINDOW 3 7 56 VBottom 2
SYMATTR InstName Ri
SYMATTR Value 100k
SYMBOL source-V -128 272 R0
WINDOW 123 28 109 Left 2
WINDOW 39 0 0 Left 2
SYMATTR Value2 AC 1
SYMATTR InstName V1
SYMATTR Value ""
SYMBOL cap 0 256 R270
WINDOW 0 32 32 VTop 2
WINDOW 3 0 32 VBottom 2
SYMATTR InstName C1
SYMATTR Value 100n
SYMBOL cap 288 192 R270
WINDOW 0 32 32 VTop 2
WINDOW 3 0 32 VBottom 2
SYMATTR InstName C2
SYMATTR Value 1µ
SYMBOL res 400 208 R0
SYMATTR InstName RL
SYMATTR Value 20k
TEXT -72 24 Left 2 !.model npnx npn (IS=36f BF=200 VAF=50)
TEXT -232 88 Left 2 !;op
TEXT -168 64 Left 2 !.ac oct 5 1 100k
