Version 4
SHEET 1 880 1116
WIRE 160 112 144 112
WIRE 176 112 160 112
WIRE 288 112 256 112
WIRE 368 112 288 112
WIRE 400 112 368 112
WIRE 0 160 -32 160
WIRE 32 160 0 160
WIRE 288 160 288 112
WIRE 400 160 400 112
WIRE -32 176 -32 160
WIRE 288 256 288 240
WIRE 400 256 400 224
WIRE 544 256 512 256
WIRE 576 256 544 256
WIRE 672 256 624 256
WIRE 672 304 672 256
WIRE 704 304 672 304
WIRE 720 304 704 304
WIRE 160 336 144 336
WIRE 176 336 160 336
WIRE 288 336 256 336
WIRE 368 336 288 336
WIRE 400 336 368 336
WIRE 544 352 512 352
WIRE 576 352 544 352
WIRE 672 352 672 304
WIRE 672 352 624 352
WIRE 288 384 288 336
WIRE 400 384 400 336
WIRE 288 480 288 464
WIRE 400 480 400 448
FLAG 288 256 0
FLAG 400 256 0
FLAG -32 256 0
FLAG 0 160 e
FLAG 368 336 a2
FLAG 288 480 0
FLAG 400 480 0
FLAG 160 336 e
FLAG 368 112 a1
FLAG 704 304 a
FLAG 544 256 a1
FLAG 544 352 a2
FLAG 160 112 e
SYMBOL res 160 128 R270
WINDOW 0 25 56 VTop 2
WINDOW 3 7 56 VBottom 2
SYMATTR InstName R1
SYMATTR Value 1k
SYMBOL res 272 144 R0
SYMATTR InstName R2
SYMATTR Value 1k
SYMBOL cap 384 160 R0
SYMATTR InstName C1
SYMATTR Value {C}
SYMBOL MDB_sym\\source-V -32 160 R0
WINDOW 3 -60 133 Left 2
WINDOW 123 0 0 Left 2
WINDOW 39 0 0 Left 2
SYMATTR InstName V1
SYMATTR Value SINE(0 1 {f0})
SYMBOL res 160 352 R270
WINDOW 0 25 56 VTop 2
WINDOW 3 7 56 VBottom 2
SYMATTR InstName R3
SYMATTR Value .5k
SYMBOL cap 384 384 R0
SYMATTR InstName C2
SYMATTR Value {C}
SYMBOL MDB_sym\\jumperSetable 608 256 R0
SYMATTR InstName U1
SYMATTR Value cl={sw}
SYMBOL MDB_sym\\jumperSetable 608 352 R0
SYMATTR InstName U2
SYMATTR Value cl={1-sw}
TEXT -102 572 Left 2 !.noise V(a) V1 dec 100 1 100k\n.meas noise noiserms integ V(onoise) from 1 to {f0}
TEXT -96 392 Left 2 !.param Temp = 20\n+ sw = 1\n+ C =100n\n+ f0 = 10k \n.step param C 100n 200n 20n\n.step param sw list 1 0
