Version 4
SHEET 1 880 680
WIRE 192 -96 112 -96
WIRE 208 -96 192 -96
WIRE 112 -64 112 -96
WIRE 112 32 112 16
WIRE 400 80 336 80
WIRE 192 144 112 144
WIRE 208 144 192 144
WIRE 112 176 112 144
WIRE 112 272 112 256
FLAG 112 272 0
FLAG 192 144 N0
FLAG 112 32 0
FLAG 192 -96 VrEff
SYMBOL bv 112 160 R0
SYMATTR InstName B1
SYMATTR Value V=white(Namps/Tsim*TIME)
SYMBOL bv 112 -80 R0
SYMATTR InstName B2
SYMATTR Value V={Ureff}
SYMBOL MDB_sym\\source-Vmarker 336 80 R0
SYMATTR Value V={kb}
SYMATTR InstName U1
TEXT 78 296 Left 2 !.tran {Tsim}
TEXT 96 400 Left 2 !.param Noise=1\n+ Tsim = 10ms\n+ theta = 17 ; °C\n+ B = 10k ; delta_f\n+ R = 1k\n+ Namps = 1e3  ; How many random values should be generated\n+ Ureff = {sqrt( 4*kb*290*R*B)}\n+ kb = 1.38e-23\n+ T0 = 273 ; Kelvin
