Version 4
SHEET 1 880 680
WIRE 64 -576 -64 -576
WIRE -64 -496 -64 -576
WIRE 144 -496 144 -576
WIRE 64 -480 64 -576
WIRE 144 -384 144 -416
WIRE -64 -320 -64 -416
WIRE 64 -320 64 -432
WIRE 64 -320 -64 -320
WIRE 144 -320 144 -352
WIRE -64 -304 -64 -320
WIRE -64 -192 -64 -224
FLAG -64 -192 0
FLAG 144 -320 0
FLAG 144 -576 0
SYMBOL res -80 -320 R0
SYMATTR InstName R2
SYMATTR Value 10meg
SYMBOL arrow_curr 144 -368 R0
SYMATTR InstName IphMod1
SYMBOL source-V -64 -512 R0
WINDOW 3 -44 372 Left 2
WINDOW 123 0 0 Left 2
WINDOW 39 0 0 Left 2
SYMATTR InstName Ve
SYMATTR Value SINE(0 300n 10k 100u)
SYMBOL crtl-V-I_INV 144 -512 R0
SYMATTR InstName Ira
SYMATTR Value 12.14
TEXT 32 208 Left 2 !.dc dec Ve 0.01 10 100
TEXT 24 264 Left 2 ;SINE(0 300n 10k 100u)
TEXT -128 -608 Left 2 ;Irradiance [mW/cm2]
