Version 4
SHEET 1 3300 680
WIRE 768 -560 624 -560
WIRE 1008 -560 960 -560
WIRE 1008 -544 1008 -560
WIRE 768 -528 640 -528
WIRE 944 -512 880 -512
WIRE 768 -496 656 -496
WIRE 576 -480 528 -480
WIRE 944 -480 944 -512
WIRE 992 -480 944 -480
WIRE 1024 -480 992 -480
WIRE 768 -464 672 -464
WIRE 944 -448 944 -480
WIRE 768 -432 688 -432
WIRE 768 -400 704 -400
WIRE 768 -368 720 -368
WIRE 768 -336 736 -336
WIRE 416 -304 416 -480
WIRE 480 -304 416 -304
WIRE 768 -304 544 -304
WIRE 624 -208 624 -560
WIRE 624 -208 576 -208
WIRE 768 -208 624 -208
WIRE 928 -208 880 -208
WIRE 960 -208 928 -208
WIRE 320 -192 -80 -192
WIRE 464 -192 320 -192
WIRE 640 -176 640 -528
WIRE 640 -176 576 -176
WIRE 768 -176 640 -176
WIRE 928 -176 880 -176
WIRE 960 -176 928 -176
WIRE -80 -160 -80 -192
WIRE 320 -160 224 -160
WIRE 464 -160 320 -160
WIRE 656 -144 656 -496
WIRE 656 -144 576 -144
WIRE 768 -144 656 -144
WIRE 928 -144 880 -144
WIRE 960 -144 928 -144
WIRE 224 -128 224 -160
WIRE 672 -112 672 -464
WIRE 672 -112 576 -112
WIRE 768 -112 672 -112
WIRE 928 -112 880 -112
WIRE 960 -112 928 -112
WIRE 688 -80 688 -432
WIRE 688 -80 576 -80
WIRE 768 -80 688 -80
WIRE 928 -80 880 -80
WIRE 960 -80 928 -80
WIRE -80 -64 -80 -80
WIRE 304 -48 224 -48
WIRE 464 -48 304 -48
WIRE 704 -48 704 -400
WIRE 704 -48 576 -48
WIRE 768 -48 704 -48
WIRE 928 -48 880 -48
WIRE 944 -48 928 -48
WIRE 416 -16 416 -304
WIRE 464 -16 416 -16
WIRE 720 -16 720 -368
WIRE 720 -16 576 -16
WIRE 768 -16 720 -16
WIRE 928 -16 880 -16
WIRE 944 -16 928 -16
WIRE 0 16 -80 16
WIRE 416 16 416 -16
WIRE 416 16 0 16
WIRE 736 16 736 -336
WIRE 736 16 576 16
WIRE 768 16 736 16
WIRE 928 16 880 16
WIRE 944 16 928 16
WIRE -80 64 -80 16
WIRE -80 192 -80 144
FLAG -80 192 0
FLAG -80 -64 0
FLAG 0 16 conversion_clock
FLAG 320 -192 in_pos
FLAG 320 -160 in_neg
FLAG 304 -48 Vref
FLAG 944 -368 0
FLAG 1008 -544 0
FLAG 992 -480 vout
FLAG 928 -208 D0_
FLAG 928 -176 D1_
FLAG 928 -144 D2_
FLAG 928 -112 D3_
FLAG 928 -80 D4_
FLAG 928 -48 D5_
FLAG 928 -16 D6_
FLAG 928 16 D7_
FLAG 224 -128 0
SYMBOL Source-V -80 48 R0
WINDOW 123 0 0 Left 0
WINDOW 39 0 0 Left 0
SYMATTR InstName Vclk
SYMATTR Value PULSE(0 5 6n 1n 1n {T/2} {T})
SYMBOL Source-V -80 -176 R0
WINDOW 3 125 -24 Bottom 0
WINDOW 123 0 0 Left 0
WINDOW 39 0 0 Left 0
SYMATTR Value SINE(2.5 2.5 {freq})
SYMATTR InstName Vin
SYMBOL res 928 -464 R0
SYMATTR InstName R1
SYMATTR Value 1k
SYMBOL Source-I 880 -560 R270
WINDOW 0 27 40 VTop 0
WINDOW 3 -27 40 VBottom 0
WINDOW 123 0 0 Left 0
WINDOW 39 0 0 Left 0
SYMATTR InstName I1
SYMATTR Value 5m
SYMBOL EIT_Digital\\Converter-ADC-8bit 464 -208 R0
SYMATTR InstName U1
SYMATTR Value Tcv=10ns
SYMBOL EIT_Digital\\converter-dac-8bit 768 -560 R0
SYMATTR InstName U10
SYMBOL EIT_Digital\\PROBE_dig 768 -224 R0
SYMATTR Value T=0
SYMATTR InstName U3
SYMBOL EIT_Digital\\PROBE_dig 768 -192 R0
SYMATTR Value T=1
SYMATTR InstName U4
SYMBOL EIT_Digital\\PROBE_dig 768 -160 R0
SYMATTR Value T=2
SYMATTR InstName U5
SYMBOL EIT_Digital\\PROBE_dig 768 -128 R0
SYMATTR Value T=3
SYMATTR InstName U6
SYMBOL EIT_Digital\\PROBE_dig 768 -96 R0
SYMATTR Value T=4
SYMATTR InstName U7
SYMBOL EIT_Digital\\PROBE_dig 768 -64 R0
SYMATTR Value T=5
SYMATTR InstName U8
SYMBOL EIT_Digital\\PROBE_dig 768 -32 R0
SYMATTR Value T=6
SYMATTR InstName U9
SYMBOL EIT_Digital\\PROBE_dig 768 0 R0
SYMATTR Value T=7
SYMATTR InstName U11
SYMBOL EIT_Digital\\PROBE_dig 416 -496 R0
SYMATTR Value T=-2
SYMATTR InstName U2
SYMBOL Source-Vmarker 224 -48 R0
WINDOW 3 -56 -1 Center 0
SYMATTR InstName U13
SYMBOL EIT_Digital\\BUFFER 496 -304 R0
SYMATTR InstName U14
SYMATTR Value TD={T/4}
TEXT -96 -456 Left 0 !.param vpwr$_digital=5
TEXT -96 -568 Left 0 ;ADC-DAC 8 Bit
TEXT -96 -400 Left 0 !.tran {10*1/freq}
TEXT -96 -360 Left 0 !.param T=20us
TEXT 160 -368 Left 0 !.param freq=10k
