Version 4
SHEET 1 3300 680
WIRE -96 -560 -144 -560
WIRE -528 -480 -1152 -480
WIRE -416 -480 -528 -480
WIRE -224 -480 -224 -560
WIRE -224 -480 -336 -480
WIRE -208 -480 -224 -480
WIRE -96 -464 -96 -560
WIRE -96 -464 -144 -464
WIRE 80 -464 -96 -464
WIRE 304 -464 160 -464
WIRE -208 -448 -256 -448
WIRE -1152 -432 -1152 -480
WIRE -912 -432 -1024 -432
WIRE -256 -400 -256 -448
WIRE 96 -384 96 -416
WIRE 144 -368 144 -416
WIRE 192 -368 144 -368
WIRE 304 -352 304 -464
WIRE 400 -352 304 -352
WIRE 576 -352 480 -352
WIRE -1152 -336 -1152 -352
WIRE -1024 -336 -1024 -432
WIRE -1024 -336 -1152 -336
WIRE -912 -336 -912 -352
WIRE 576 -336 576 -352
WIRE -528 -224 -528 -480
WIRE 96 -224 -528 -224
WIRE 304 -224 304 -352
WIRE 304 -224 176 -224
WIRE 576 -208 576 -272
WIRE 112 -144 112 -176
WIRE 160 192 160 -176
WIRE 160 192 128 192
WIRE 64 208 -896 208
WIRE 192 224 192 -368
WIRE 192 224 128 224
WIRE -896 240 -896 208
WIRE -896 336 -896 320
FLAG -896 336 0
FLAG -912 -336 0
FLAG 96 -384 0
FLAG 112 -144 0
FLAG -256 -400 0
FLAG 576 -208 0
SYMBOL Source-V -896 224 R0
WINDOW 3 145 19 Bottom 0
WINDOW 123 0 0 Left 0
WINDOW 39 0 0 Left 0
WINDOW 0 15 -602 Left 0
SYMATTR Value SINE(0 1 50 0 0 0 100)
SYMATTR InstName Vin
SYMBOL source-V -912 -448 R0
WINDOW 0 41 744 Left 0
WINDOW 3 26 -8 Left 0
WINDOW 123 0 0 Left 0
WINDOW 39 0 0 Left 0
SYMATTR InstName Vref
SYMATTR Value SINE(0 5 50 0 0 0 100)
SYMBOL LT_original_libs\\sw 64 -464 R270
SYMATTR InstName S1
SYMATTR Value ""
SYMATTR SpiceModel SWITCH
SYMBOL LT_original_libs\\sw 80 -224 R270
SYMATTR InstName S2
SYMATTR Value ""
SYMATTR SpiceModel SWITCH
SYMBOL EIT_Digital\\schmitt-trigger-single 64 144 R0
SYMATTR InstName U1
SYMATTR Value2 VT=0
SYMATTR SpiceLine VH=0.001
SYMBOL EIT_Semiconductors\\op_3 -176 -464 R0
SYMATTR InstName U2
SYMBOL res -240 -544 R270
WINDOW 0 25 56 VTop 0
WINDOW 3 7 56 VBottom 0
SYMATTR InstName R1
SYMATTR Value 1k
SYMBOL res -432 -464 R270
WINDOW 0 25 56 VTop 0
WINDOW 3 11 82 VBottom 0
SYMATTR InstName R2
SYMATTR Value 1k
SYMBOL res 384 -336 R270
WINDOW 0 25 56 VTop 0
WINDOW 3 7 56 VBottom 0
SYMATTR InstName R3
SYMATTR Value 100k
SYMBOL cap 560 -336 R0
SYMATTR InstName C1
SYMATTR Value 1µF
SYMBOL source-V -1152 -448 R0
WINDOW 3 -86 -62 Left 0
WINDOW 123 0 0 Left 0
WINDOW 39 0 0 Left 0
SYMATTR Value SINE(0 0 70 0 0 0 100)
SYMATTR InstName V1
TEXT 384 -48 Left 0 !.param vpwr$_digital=5
TEXT 384 -16 Left 0 !.tran 0 400m 0 uic
TEXT 392 16 Left 0 !.model SWITCH SW(Ron=0.1 Roff=1G Vt=0.5)
TEXT -864 -336 Left 0 ;Eingangsspannung
TEXT -872 344 Left 0 ;Referenzspannung
TEXT -1312 -344 Left 0 ;Störspannung
RECTANGLE Normal -592 -272 -992 -528 3
RECTANGLE Normal -576 384 -976 144 3
