Version 4
SHEET 1 932 680
WIRE 288 -304 224 -304
WIRE 784 -304 288 -304
WIRE 784 -256 784 -304
WIRE 224 -208 224 -224
WIRE 640 -208 224 -208
WIRE 288 -192 288 -224
WIRE 576 -192 288 -192
WIRE 144 -176 48 -176
WIRE 368 -176 144 -176
WIRE 432 -176 368 -176
WIRE 144 -144 144 -176
WIRE 368 -144 368 -176
WIRE -32 -128 -48 -128
WIRE -16 -128 -32 -128
WIRE -48 -112 -48 -128
WIRE 224 -112 224 -208
WIRE 288 -112 288 -192
WIRE -128 -96 -144 -96
WIRE 48 -96 48 -176
WIRE 80 -96 48 -96
WIRE 432 -96 432 -176
WIRE 784 -96 784 -256
WIRE 784 -96 432 -96
WIRE 224 -80 224 -112
WIRE 288 -80 288 -112
WIRE 576 -80 576 -192
WIRE 640 -80 640 -208
WIRE -128 -48 -144 -48
WIRE 144 -32 144 -48
WIRE 160 -32 144 -32
WIRE 368 -32 368 -48
WIRE 368 -32 352 -32
WIRE 512 -32 432 -32
WIRE 736 -32 704 -32
WIRE 784 -32 784 -96
WIRE -48 -16 -48 -32
WIRE 224 32 224 16
WIRE 256 32 224 32
WIRE 288 32 288 16
WIRE 288 32 256 32
WIRE 576 32 576 16
WIRE 608 32 576 32
WIRE 640 32 640 16
WIRE 640 32 608 32
WIRE 368 64 368 -32
WIRE 736 64 736 -32
WIRE 736 64 368 64
WIRE 784 64 784 48
WIRE 144 80 144 -32
WIRE 432 80 432 -32
WIRE 432 80 144 80
WIRE 448 96 32 96
WIRE 608 96 608 32
WIRE 784 96 608 96
WIRE 256 128 256 32
WIRE 608 128 256 128
WIRE 144 144 144 80
WIRE 368 144 368 64
WIRE 608 160 608 128
WIRE 784 160 784 96
WIRE 32 192 32 176
WIRE 80 192 32 192
WIRE 448 192 448 96
WIRE 448 192 432 192
WIRE 32 208 32 192
WIRE 544 208 496 208
WIRE 864 208 848 208
WIRE 496 240 496 208
WIRE 144 256 144 240
WIRE 208 256 144 256
WIRE 368 256 368 240
WIRE 368 256 288 256
WIRE 864 256 864 208
WIRE 144 272 144 256
WIRE 368 272 368 256
WIRE 608 272 608 256
WIRE 656 272 608 272
WIRE 784 272 784 256
WIRE 784 272 736 272
WIRE 608 288 608 272
WIRE 784 288 784 272
WIRE 496 352 496 320
WIRE 144 368 144 352
WIRE 368 368 368 352
WIRE 608 384 608 368
WIRE 784 384 784 368
FLAG 32 208 0
FLAG 144 368 0
FLAG 368 368 0
FLAG 784 64 0
FLAG 784 -256 plus
FLAG 224 -112 c1
FLAG 288 -112 c2
FLAG -48 -16 0
FLAG -32 -128 out
FLAG -144 -96 c2
FLAG -144 -48 c1
FLAG 608 384 0
FLAG 784 384 0
FLAG 864 256 0
FLAG 496 352 0
SYMBOL EIT_Semiconductors\\npn 80 144 R0
SYMATTR InstName QA
SYMBOL EIT_Semiconductors\\npn 432 144 M0
SYMATTR InstName QB
SYMBOL source-V 32 80 M0
WINDOW 3 -105 -15 Left 2
WINDOW 123 0 0 Left 2
WINDOW 39 0 0 Left 2
SYMATTR Value SINE(0 400m 110Meg)
SYMATTR InstName VA
SYMBOL res 304 240 R90
WINDOW 0 7 56 VBottom 2
WINDOW 3 25 56 VTop 2
SYMATTR InstName RA
SYMATTR Value 1k
SYMBOL source-I 144 352 R180
WINDOW 0 29 73 Left 2
WINDOW 3 29 17 Left 2
SYMATTR InstName IA1
SYMATTR Value 1m
SYMBOL source-I 368 352 M180
WINDOW 0 29 73 Left 2
WINDOW 3 29 17 Left 2
SYMATTR InstName IA2
SYMATTR Value 1m
SYMBOL source-V 784 -48 R0
SYMATTR InstName V2
SYMATTR Value 2V
SYMBOL EIT_Semiconductors\\npn 80 -144 R0
SYMATTR InstName D1
SYMBOL EIT_Semiconductors\\npn 432 -144 M0
SYMATTR InstName D2
SYMBOL EIT_Semiconductors\\npn 160 -80 R0
WINDOW 3 -6 114 Left 2
SYMATTR InstName Q1
SYMBOL EIT_Semiconductors\\npn 352 -80 M0
WINDOW 3 -4 107 Left 2
SYMATTR InstName Q2
SYMBOL res 208 -320 R0
WINDOW 0 37 26 Left 2
SYMATTR InstName R1
SYMATTR Value 1k
SYMBOL res 272 -320 R0
WINDOW 0 37 26 Left 2
SYMATTR InstName R2
SYMATTR Value 1k
SYMBOL crtl-V-V -48 -128 R0
SYMATTR InstName E1
SYMATTR Value 1
SYMBOL EIT_Semiconductors\\npn 512 -80 R0
WINDOW 3 -6 114 Left 2
SYMATTR InstName Q3
SYMBOL EIT_Semiconductors\\npn 704 -80 M0
WINDOW 3 -4 107 Left 2
SYMATTR InstName Q4
SYMBOL EIT_Semiconductors\\npn 544 160 R0
SYMATTR InstName QA1
SYMBOL EIT_Semiconductors\\npn 848 160 M0
SYMATTR InstName QB1
SYMBOL res 752 256 R90
WINDOW 0 7 56 VBottom 2
WINDOW 3 25 56 VTop 2
SYMATTR InstName RB
SYMATTR Value 1k
SYMBOL source-I 608 368 R180
WINDOW 0 29 73 Left 2
WINDOW 3 29 17 Left 2
SYMATTR InstName IB1
SYMATTR Value 1m
SYMBOL source-I 784 368 M180
WINDOW 0 29 73 Left 2
WINDOW 3 29 17 Left 2
SYMATTR InstName IB2
SYMATTR Value 1m
SYMBOL source-V 496 224 M0
WINDOW 3 -77 160 Left 2
WINDOW 123 0 0 Left 2
WINDOW 39 0 0 Left 2
SYMATTR Value SINE(0 400m 100meg)
SYMATTR InstName VA1
TEXT -16 -224 Left 2 !;dc VA -1.5 1.5 10m
TEXT -16 -200 Left 2 !.tran 3u
