Version 4
SHEET 1 932 680
WIRE 288 -304 224 -304
WIRE 784 -304 288 -304
WIRE 784 -256 784 -304
WIRE 224 -208 224 -224
WIRE 640 -208 224 -208
WIRE 288 -192 288 -224
WIRE 576 -192 288 -192
WIRE -32 -128 -48 -128
WIRE -16 -128 -32 -128
WIRE -48 -112 -48 -128
WIRE 224 -112 224 -208
WIRE 288 -112 288 -192
WIRE -128 -96 -144 -96
WIRE 224 -80 224 -112
WIRE 288 -80 288 -112
WIRE 576 -80 576 -192
WIRE 640 -80 640 -208
WIRE -128 -48 -144 -48
WIRE 144 -32 32 -32
WIRE 160 -32 144 -32
WIRE 368 -32 352 -32
WIRE 512 -32 432 -32
WIRE 736 -32 704 -32
WIRE 784 -32 784 -256
WIRE -48 -16 -48 -32
WIRE 224 32 224 16
WIRE 256 32 224 32
WIRE 288 32 288 16
WIRE 288 32 256 32
WIRE 576 32 576 16
WIRE 608 32 576 32
WIRE 640 32 640 16
WIRE 640 32 608 32
WIRE 368 64 368 -32
WIRE 736 64 736 -32
WIRE 736 64 368 64
WIRE 784 64 784 48
WIRE 144 80 144 -32
WIRE 432 80 432 -32
WIRE 432 80 144 80
WIRE 32 96 32 -32
WIRE 608 96 608 32
WIRE 784 96 608 96
WIRE 256 128 256 32
WIRE 608 128 256 128
WIRE 608 160 608 128
WIRE 784 160 784 96
WIRE 32 192 32 176
WIRE 368 192 368 64
WIRE 368 192 32 192
WIRE 544 208 496 208
WIRE 864 208 848 208
WIRE 32 224 32 192
WIRE 496 240 496 208
WIRE 864 256 864 208
WIRE 608 272 608 256
WIRE 656 272 608 272
WIRE 784 272 784 256
WIRE 784 272 736 272
WIRE 608 288 608 272
WIRE 784 288 784 272
WIRE 32 320 32 304
WIRE 496 352 496 320
WIRE 608 384 608 368
WIRE 784 384 784 368
FLAG 784 64 0
FLAG 784 -256 plus
FLAG 224 -112 c1
FLAG 288 -112 c2
FLAG -48 -16 0
FLAG -32 -128 out
FLAG -144 -96 c2
FLAG -144 -48 c1
FLAG 608 384 0
FLAG 784 384 0
FLAG 864 256 0
FLAG 496 352 0
FLAG 32 320 0
SYMBOL source-V 32 80 M0
WINDOW 3 -105 -15 Left 2
WINDOW 123 0 0 Left 2
WINDOW 39 0 0 Left 2
SYMATTR Value PULSE(-150m +150m 0 1p 1p 50u 100u)
SYMATTR InstName VA
SYMBOL source-V 784 -48 R0
SYMATTR InstName V2
SYMATTR Value 2V
SYMBOL EIT_Semiconductors\\npn 160 -80 R0
WINDOW 3 -6 114 Left 2
SYMATTR InstName Q1
SYMBOL EIT_Semiconductors\\npn 352 -80 M0
WINDOW 3 -4 107 Left 2
SYMATTR InstName Q2
SYMBOL res 208 -320 R0
WINDOW 0 37 26 Left 2
SYMATTR InstName R1
SYMATTR Value 1k
SYMBOL res 272 -320 R0
WINDOW 0 37 26 Left 2
SYMATTR InstName R2
SYMATTR Value 1k
SYMBOL crtl-V-V -48 -128 R0
SYMATTR InstName E1
SYMATTR Value 1
SYMBOL EIT_Semiconductors\\npn 512 -80 R0
WINDOW 3 -6 114 Left 2
SYMATTR InstName Q3
SYMBOL EIT_Semiconductors\\npn 704 -80 M0
WINDOW 3 -4 107 Left 2
SYMATTR InstName Q4
SYMBOL EIT_Semiconductors\\npn 544 160 R0
SYMATTR InstName QA1
SYMBOL EIT_Semiconductors\\npn 848 160 M0
SYMATTR InstName QB1
SYMBOL res 752 256 R90
WINDOW 0 7 56 VBottom 2
WINDOW 3 25 56 VTop 2
SYMATTR InstName RB
SYMATTR Value 1k
SYMBOL source-I 608 368 R180
WINDOW 0 29 73 Left 2
WINDOW 3 29 17 Left 2
SYMATTR InstName IB1
SYMATTR Value 1m
SYMBOL source-I 784 368 M180
WINDOW 0 29 73 Left 2
WINDOW 3 29 17 Left 2
SYMATTR InstName IB2
SYMATTR Value 1m
SYMBOL source-V 496 224 M0
WINDOW 3 -76 159 Left 2
WINDOW 123 0 0 Left 2
WINDOW 39 0 0 Left 2
SYMATTR Value SINE(0 400m 1k)
SYMATTR InstName VA1
SYMBOL source-V 32 208 R0
SYMATTR InstName V1
SYMATTR Value 1.5
TEXT -16 -224 Left 2 !;dc VA -1.5 1.5 10m
TEXT -16 -200 Left 2 !.tran 2m
