Version 4
SHEET 1 880 680
WIRE 32 0 0 0
WIRE 144 0 96 0
WIRE 240 0 144 0
WIRE 368 0 240 0
WIRE 464 0 368 0
WIRE 560 0 544 0
WIRE 144 16 144 0
WIRE 368 16 368 0
WIRE 0 32 0 0
WIRE 560 96 560 0
WIRE 480 112 464 112
WIRE 144 128 144 96
WIRE 208 128 144 128
WIRE 464 128 464 112
WIRE 464 128 208 128
WIRE 0 160 0 112
WIRE 368 160 368 96
WIRE 432 160 368 160
WIRE 480 160 432 160
WIRE 368 176 368 160
WIRE 560 208 560 176
WIRE 144 256 144 128
WIRE 480 256 368 256
WIRE 80 304 64 304
WIRE 304 304 288 304
WIRE 64 384 64 304
WIRE 144 384 144 352
WIRE 288 384 288 304
WIRE 368 384 368 352
FLAG 144 384 0
FLAG 368 384 0
FLAG 288 384 0
FLAG 64 384 0
FLAG 432 160 b
FLAG 208 128 a
FLAG 560 208 0
FLAG 240 0 ref
FLAG 0 160 0
SYMBOL EIT_Semiconductors\\pnp_o 80 256 R0
SYMATTR InstName Q1
SYMATTR Value CA3096_pnp
SYMBOL EIT_Semiconductors\\pnp_o 304 256 R0
SYMATTR InstName Q2
SYMATTR Value CA3096_pnp 24
SYMBOL res 128 0 R0
SYMATTR InstName RA
SYMATTR Value 10k
SYMBOL res 352 0 R0
SYMATTR InstName RB
SYMATTR Value 40k
SYMBOL res 352 160 R0
SYMATTR InstName R2
SYMATTR Value 8.2k
SYMBOL crtl-V-V 560 80 R0
SYMATTR InstName E1
SYMATTR Value 100000
SYMBOL res 560 -16 R90
WINDOW 0 7 56 VBottom 2
WINDOW 3 25 56 VTop 2
SYMATTR InstName R1
SYMATTR Value 1k
SYMBOL diode 32 16 R270
WINDOW 0 32 32 VTop 2
WINDOW 3 0 32 VBottom 2
SYMATTR InstName D1
SYMBOL source-V 0 16 R0
SYMATTR InstName V1
SYMATTR Value 1.1
TEXT -76 248 Left 2 !;op
TEXT -78 408 Left 2 !.dc temp 0 100 5
