Version 4
SHEET 1 880 680
WIRE 144 0 0 0
WIRE 368 0 144 0
WIRE 144 16 144 0
WIRE 368 16 368 0
WIRE 0 80 0 0
WIRE 144 112 144 96
WIRE 208 112 144 112
WIRE 224 112 208 112
WIRE 320 112 288 112
WIRE 368 112 368 96
WIRE 368 112 320 112
WIRE 368 160 368 112
WIRE 0 176 0 160
WIRE 144 256 144 112
WIRE 368 256 368 240
WIRE 80 304 64 304
WIRE 304 304 288 304
WIRE 64 384 64 304
WIRE 144 384 144 352
WIRE 288 384 288 304
WIRE 368 384 368 352
FLAG 144 384 0
FLAG 368 384 0
FLAG 288 384 0
FLAG 64 384 0
FLAG 0 176 0
FLAG 320 112 b
FLAG 208 112 a
SYMBOL EIT_Semiconductors\\pnp_o 80 256 R0
SYMATTR InstName Q1
SYMATTR Value CA3096_pnp
SYMBOL EIT_Semiconductors\\pnp_o 304 256 R0
SYMATTR InstName Q2
SYMATTR Value CA3096_pnp 24
SYMBOL res 128 0 R0
SYMATTR InstName RA
SYMATTR Value 10k
SYMBOL source-V 0 64 R0
SYMATTR InstName V1
SYMATTR Value 1.2
SYMBOL res 352 0 R0
SYMATTR InstName RB
SYMATTR Value 40k
SYMBOL res 352 144 R0
SYMATTR InstName R2
SYMATTR Value 7.71k
TEXT -76 248 Left 2 !;op
TEXT -72 216 Left 2 !.dc v1 0 1.5 10m
