Version 4
SHEET 1 880 680
WIRE 128 -48 0 -48
WIRE 288 -48 128 -48
WIRE 0 -32 0 -48
WIRE 128 -16 128 -48
WIRE 288 -16 288 -48
WIRE 592 32 448 32
WIRE 448 64 448 32
WIRE 0 80 0 48
WIRE 128 80 128 64
WIRE 368 80 128 80
WIRE 592 80 592 32
WIRE 288 128 288 64
WIRE 368 128 288 128
WIRE 128 160 128 80
WIRE 288 160 288 128
WIRE 448 176 448 144
WIRE -48 208 -80 208
WIRE 192 208 16 208
WIRE 352 208 192 208
WIRE 496 208 352 208
WIRE 592 208 592 160
WIRE 592 208 496 208
WIRE -80 240 -80 208
WIRE 272 272 256 272
WIRE 288 272 288 256
WIRE 288 272 272 272
WIRE -80 352 -80 320
WIRE 128 368 128 256
WIRE 176 368 128 368
WIRE 288 368 288 352
WIRE 288 368 176 368
WIRE 288 384 288 368
WIRE 288 496 288 464
FLAG 288 496 0
FLAG 0 80 0
FLAG 448 176 0
FLAG 496 208 ref
FLAG 176 368 e1
FLAG 272 272 e2
FLAG -80 352 0
SYMBOL EIT_Semiconductors\\npn 192 160 M0
SYMATTR InstName Q1
SYMATTR Value ca3046
SYMBOL EIT_Semiconductors\\npn 352 160 M0
SYMATTR InstName Q2
SYMATTR Value ca3046 8
SYMBOL res 272 256 R0
SYMATTR InstName R2
SYMATTR Value 1.442k
SYMBOL res 272 368 R0
SYMATTR InstName R1
SYMATTR Value 4.37k
SYMBOL res 112 -32 R0
SYMATTR InstName R3
SYMATTR Value 1k
SYMBOL res 272 -32 R0
SYMATTR InstName R4
SYMATTR Value 2k
SYMBOL source-V 0 -48 R0
SYMATTR InstName V1
SYMATTR Value 5
SYMBOL crtl-V-V 448 48 R0
SYMATTR InstName E1
SYMATTR Value 100000
SYMBOL res 576 64 R0
SYMATTR InstName R5
SYMATTR Value 1k
SYMBOL source-V -80 224 R0
SYMATTR InstName V2
SYMATTR Value 1
SYMBOL diode -48 224 R270
WINDOW 0 32 32 VTop 2
WINDOW 3 0 32 VBottom 2
SYMATTR InstName D1
TEXT 8 288 Left 2 !.op
