Version 4
SHEET 1 1212 760
WIRE -48 -176 -224 -176
WIRE 0 -176 -48 -176
WIRE 112 -176 80 -176
WIRE 176 -176 112 -176
WIRE 432 -176 176 -176
WIRE 912 -176 512 -176
WIRE 512 -112 256 -112
WIRE 608 -112 512 -112
WIRE 672 -112 608 -112
WIRE 720 -112 672 -112
WIRE 832 -112 720 -112
WIRE -224 -96 -224 -176
WIRE 608 -80 608 -112
WIRE 832 -80 832 -112
WIRE 256 -48 256 -112
WIRE 720 0 720 -112
WIRE -224 16 -224 -16
WIRE -96 16 -96 -16
WIRE 832 32 832 0
WIRE 608 48 608 0
WIRE 608 48 544 48
WIRE 656 48 608 48
WIRE 608 64 608 48
WIRE 544 112 544 48
WIRE 608 192 608 160
WIRE 224 224 192 224
WIRE 256 224 256 32
WIRE 256 224 224 224
WIRE 320 224 256 224
WIRE 112 272 112 -176
WIRE 128 272 112 272
WIRE 400 272 384 272
WIRE 720 272 720 96
WIRE 832 272 720 272
WIRE 848 272 832 272
WIRE 912 272 912 -176
WIRE 912 272 848 272
WIRE 608 304 608 288
WIRE 672 304 672 240
WIRE 672 304 608 304
WIRE 528 320 448 320
WIRE 608 320 608 304
WIRE 608 320 592 320
WIRE 400 336 400 272
WIRE 720 336 720 272
WIRE 512 352 512 -112
WIRE 608 384 608 320
WIRE 624 384 608 384
WIRE 656 384 624 384
WIRE 320 400 320 320
WIRE 384 400 320 400
WIRE 448 400 448 320
WIRE 448 400 384 400
WIRE 832 400 832 272
WIRE 192 416 192 320
WIRE 224 416 192 416
WIRE 256 416 224 416
WIRE 192 432 192 416
WIRE 320 432 320 400
WIRE 608 432 608 384
WIRE 256 480 256 416
WIRE 512 480 512 448
WIRE 528 480 512 480
WIRE 544 480 528 480
WIRE 512 512 512 480
WIRE 832 528 832 480
WIRE 192 608 192 528
WIRE 320 608 320 528
WIRE 320 608 192 608
WIRE 512 608 512 592
WIRE 512 608 320 608
WIRE 608 608 608 528
WIRE 608 608 512 608
WIRE 656 608 608 608
WIRE 720 608 720 432
WIRE 720 608 656 608
WIRE 832 608 720 608
WIRE 832 704 832 688
FLAG 832 704 0
FLAG 832 32 0
FLAG 400 336 0
FLAG 624 384 o
FLAG -96 16 0
FLAG 848 272 out
FLAG 176 -176 a
FLAG 672 -112 plus
FLAG 656 608 minus
FLAG 528 480 b6
FLAG 384 400 b5
FLAG 224 416 c1
FLAG -48 -176 in
FLAG 224 224 e12
FLAG -224 16 0
FLAG 832 528 0
SYMBOL EIT_Semiconductors\\pnp_o 128 224 R0
WINDOW 3 50 63 Left 2
SYMATTR Value CA3096_pnp
SYMATTR InstName Q1
SYMBOL EIT_Semiconductors\\pnp_o 384 224 M0
WINDOW 3 -36 -26 Left 2
SYMATTR Value CA3096_pnp
SYMATTR InstName Q2
SYMBOL EIT_Semiconductors\\npn 256 432 M0
SYMATTR InstName Q3
SYMATTR Value CA3046
SYMBOL EIT_Semiconductors\\npn 256 432 R0
SYMATTR InstName Q4
SYMATTR Value CA3046
SYMBOL EIT_Semiconductors\\npn 448 352 R0
SYMATTR InstName Q5
SYMATTR Value CA3046
SYMBOL EIT_Semiconductors\\npn 544 432 R0
SYMATTR InstName Q6
SYMATTR Value CA3046
SYMBOL EIT_Semiconductors\\npn 656 0 R0
SYMATTR InstName Q7
SYMATTR Value CA3046
SYMBOL EIT_Semiconductors\\pnp_o 656 336 R0
WINDOW 3 -37 -11 Left 2
SYMATTR Value CA3096_pnp
SYMATTR InstName Q8
SYMBOL source-V 832 592 R0
SYMATTR InstName V1
SYMATTR Value -10
SYMBOL source-V 832 -96 R0
SYMATTR InstName V2
SYMATTR Value +10
SYMBOL cap 592 304 R90
WINDOW 0 0 32 VBottom 2
WINDOW 3 32 32 VTop 2
SYMATTR InstName C1
SYMATTR Value 30p
SYMBOL source-I 256 32 R180
WINDOW 0 29 73 Left 2
WINDOW 3 29 17 Left 2
SYMATTR InstName I0
SYMATTR Value 20µ
SYMBOL source-I 608 0 R180
WINDOW 0 29 73 Left 2
WINDOW 3 29 17 Left 2
SYMATTR InstName I1
SYMATTR Value 200µ
SYMBOL source-I 512 592 R180
WINDOW 0 29 73 Left 2
WINDOW 3 29 17 Left 2
SYMATTR InstName I2
SYMATTR Value 20µ
SYMBOL res -16 -160 R270
WINDOW 0 25 56 VTop 2
WINDOW 3 7 56 VBottom 2
SYMATTR InstName R1
SYMATTR Value 10k
SYMBOL res 416 -160 R270
WINDOW 0 25 56 VTop 2
WINDOW 3 7 56 VBottom 2
SYMATTR InstName R2
SYMATTR Value {k*10k}
SYMBOL source-V -96 -112 R0
WINDOW 123 28 56 Left 2
WINDOW 39 0 0 Left 2
WINDOW 3 28 84 Left 2
SYMATTR Value2 AC 1
SYMATTR Value PULSE(-2 2 1u 1p 1p 15u 30u)
SYMATTR InstName V3
SYMBOL res 816 384 R0
SYMATTR InstName R3
SYMATTR Value 560
SYMBOL source-V -224 -112 R0
WINDOW 123 28 56 Left 2
WINDOW 39 0 0 Left 2
WINDOW 3 -74 154 Left 2
SYMATTR Value2 AC 1
SYMATTR Value SINE(0 200m 5k)
SYMATTR InstName V4
SYMBOL EIT_Semiconductors\\npn 544 64 R0
SYMATTR InstName Q9
SYMATTR Value CA3046
SYMBOL EIT_Semiconductors\\pnp_o 672 192 M0
WINDOW 3 -37 -11 Left 2
SYMATTR Value CA3096_pnp
SYMATTR InstName Q10
TEXT -112 72 Left 2 !;ac dec 30 0.1 100meg
TEXT -96 104 Left 2 !;op
TEXT 120 -144 Left 2 !.param k=1
TEXT -72 160 Left 2 !.tran 2m
TEXT -104 224 Left 2 ;.step param k list 1 10 100 1000
TEXT -88 320 Left 2 !.four 50k v(out)
