Version 4
SHEET 1 1212 772
WIRE -128 -272 -304 -272
WIRE -80 -272 -128 -272
WIRE 32 -272 0 -272
WIRE 96 -272 32 -272
WIRE 432 -272 96 -272
WIRE 912 -272 512 -272
WIRE 336 -208 176 -208
WIRE 368 -208 336 -208
WIRE 512 -208 368 -208
WIRE 608 -208 512 -208
WIRE 672 -208 608 -208
WIRE 752 -208 672 -208
WIRE 832 -208 752 -208
WIRE -304 -192 -304 -272
WIRE 176 -192 176 -208
WIRE 336 -192 336 -208
WIRE 368 -192 368 -208
WIRE 608 -192 608 -208
WIRE 832 -176 832 -208
WIRE -304 -80 -304 -112
WIRE -176 -80 -176 -112
WIRE 176 -80 176 -112
WIRE 336 -80 336 -112
WIRE 368 -80 368 -112
WIRE 608 -80 608 -112
WIRE 256 -32 240 -32
WIRE 272 -32 256 -32
WIRE 432 -32 272 -32
WIRE 544 -32 432 -32
WIRE 752 0 752 -208
WIRE 256 32 256 -32
WIRE 336 32 336 16
WIRE 336 32 256 32
WIRE 832 32 832 -96
WIRE 608 48 608 16
WIRE 608 48 544 48
WIRE 688 48 608 48
WIRE 608 64 608 48
WIRE 544 112 544 48
WIRE 304 160 240 160
WIRE 336 160 336 112
WIRE 336 160 304 160
WIRE 608 192 608 160
WIRE 144 224 112 224
WIRE 176 224 176 16
WIRE 176 224 144 224
WIRE 240 224 176 224
WIRE 32 272 32 -272
WIRE 48 272 32 272
WIRE 320 272 304 272
WIRE 752 272 752 96
WIRE 832 272 752 272
WIRE 848 272 832 272
WIRE 912 272 912 -272
WIRE 912 272 848 272
WIRE 608 304 608 288
WIRE 672 304 672 240
WIRE 672 304 608 304
WIRE 528 320 448 320
WIRE 608 320 608 304
WIRE 608 320 592 320
WIRE 320 336 320 272
WIRE 752 336 752 272
WIRE 512 352 512 -208
WIRE 608 384 608 320
WIRE 624 384 608 384
WIRE 688 384 624 384
WIRE 240 400 240 320
WIRE 416 400 240 400
WIRE 448 400 448 320
WIRE 448 400 416 400
WIRE 832 400 832 272
WIRE 112 416 112 320
WIRE 144 416 112 416
WIRE 176 416 144 416
WIRE 112 432 112 416
WIRE 240 432 240 400
WIRE 608 432 608 384
WIRE 176 480 176 416
WIRE 512 480 512 448
WIRE 528 480 512 480
WIRE 544 480 528 480
WIRE 368 512 368 16
WIRE 432 512 368 512
WIRE 832 528 832 480
WIRE 368 544 368 512
WIRE 512 544 512 480
WIRE 432 592 432 512
WIRE 448 592 432 592
WIRE 112 656 112 528
WIRE 240 656 240 528
WIRE 240 656 112 656
WIRE 368 656 368 640
WIRE 368 656 240 656
WIRE 512 656 512 640
WIRE 512 656 368 656
WIRE 608 656 608 528
WIRE 608 656 512 656
WIRE 656 656 608 656
WIRE 752 656 752 432
WIRE 752 656 656 656
WIRE 832 656 752 656
WIRE 832 752 832 736
FLAG 832 752 0
FLAG 832 32 0
FLAG 320 336 0
FLAG 624 384 o
FLAG -176 -80 0
FLAG 848 272 out
FLAG 96 -272 a
FLAG 672 -208 plus
FLAG 656 656 minus
FLAG 528 480 b6
FLAG 416 400 b5
FLAG 144 416 c1
FLAG -128 -272 in
FLAG 144 224 e12
FLAG -304 -80 0
FLAG 832 528 0
FLAG 304 160 minus
SYMBOL EIT_Semiconductors\\pnp_o 48 224 R0
WINDOW 3 50 63 Left 2
SYMATTR Value CA3096_pnp
SYMATTR InstName Q1
SYMBOL EIT_Semiconductors\\pnp_o 304 224 M0
WINDOW 3 -36 -26 Left 2
SYMATTR Value CA3096_pnp
SYMATTR InstName Q2
SYMBOL EIT_Semiconductors\\npn 176 432 M0
SYMATTR InstName Q3
SYMATTR Value CA3046
SYMBOL EIT_Semiconductors\\npn 176 432 R0
SYMATTR InstName Q4
SYMATTR Value CA3046
SYMBOL EIT_Semiconductors\\npn 448 352 R0
SYMATTR InstName Q5
SYMATTR Value CA3046
SYMBOL EIT_Semiconductors\\npn 544 432 R0
SYMATTR InstName Q6
SYMATTR Value CA3046
SYMBOL EIT_Semiconductors\\npn 688 0 R0
SYMATTR InstName Q7
SYMATTR Value CA3046
SYMBOL EIT_Semiconductors\\pnp_o 688 336 R0
WINDOW 3 -37 -11 Left 2
SYMATTR Value CA3096_pnp
SYMATTR InstName Q8
SYMBOL source-V 832 640 R0
SYMATTR InstName V1
SYMATTR Value -10
SYMBOL source-V 832 -192 R0
SYMATTR InstName V2
SYMATTR Value +10
SYMBOL cap 592 304 R90
WINDOW 0 0 32 VBottom 2
WINDOW 3 32 32 VTop 2
SYMATTR InstName C1
SYMATTR Value 30p
SYMBOL res -96 -256 R270
WINDOW 0 25 56 VTop 2
WINDOW 3 7 56 VBottom 2
SYMATTR InstName R1
SYMATTR Value 10k
SYMBOL res 416 -256 R270
WINDOW 0 25 56 VTop 2
WINDOW 3 7 56 VBottom 2
SYMATTR InstName R2
SYMATTR Value {k*10k}
SYMBOL source-V -176 -208 R0
WINDOW 123 28 56 Left 2
WINDOW 39 0 0 Left 2
WINDOW 3 -75 105 Left 2
SYMATTR Value2 AC 1
SYMATTR Value PULSE(-2 2 1u 1p 1p 15u 30u)
SYMATTR InstName V3
SYMBOL res 816 384 R0
SYMATTR InstName R3
SYMATTR Value 560
SYMBOL source-V -304 -208 R0
WINDOW 123 28 56 Left 2
WINDOW 39 0 0 Left 2
WINDOW 3 -74 154 Left 2
SYMATTR Value2 AC 1
SYMATTR Value SINE(0 200m 5k)
SYMATTR InstName V4
SYMBOL EIT_Semiconductors\\npn 544 64 R0
SYMATTR InstName Q9
SYMATTR Value CA3046
SYMBOL EIT_Semiconductors\\pnp_o 672 192 M0
WINDOW 3 -37 -11 Left 2
SYMATTR Value CA3096_pnp
SYMATTR InstName Q10
SYMBOL EIT_Semiconductors\\pnp_o 544 -80 R0
WINDOW 3 -36 -26 Left 2
SYMATTR Value CA3096_pnp
SYMATTR InstName Q11
SYMBOL res 592 -208 R0
SYMATTR InstName R4
SYMATTR Value 1k
SYMBOL EIT_Semiconductors\\pnp_o 272 -80 R0
WINDOW 3 -17 -154 Left 2
WINDOW 0 -25 13 Left 2
SYMATTR Value CA3096_pnp
SYMATTR InstName Q12
SYMBOL res 352 16 M0
SYMATTR InstName R5
SYMATTR Value 96k
SYMBOL res 352 -208 M0
SYMATTR InstName R6
SYMATTR Value 1k
SYMBOL EIT_Semiconductors\\pnp_o 240 -80 M0
WINDOW 3 -36 -26 Left 2
SYMATTR Value CA3096_pnp
SYMATTR InstName Q13
SYMBOL res 160 -208 R0
SYMATTR InstName R7
SYMATTR Value 13k
SYMBOL EIT_Semiconductors\\npn 448 544 R0
SYMATTR InstName Q14
SYMATTR Value CA3046
SYMBOL EIT_Semiconductors\\npn 432 544 M0
SYMATTR InstName Q15
SYMATTR Value CA3046
SYMBOL res 352 -208 R0
SYMATTR InstName R8
SYMATTR Value 13k
SYMBOL EIT_Semiconductors\\pnp_o 432 -80 M0
WINDOW 3 -36 -26 Left 2
WINDOW 0 -4 110 Left 2
SYMATTR Value CA3096_pnp
SYMATTR InstName Q16
TEXT -192 72 Left 2 !;ac dec 30 0.1 100meg
TEXT -176 104 Left 2 !.op
TEXT 40 -240 Left 2 !.param k=1
TEXT -152 160 Left 2 !;tran 2m
TEXT -184 224 Left 2 ;.step param k list 1 10 100 1000
TEXT -168 320 Left 2 !.four 50k v(out)
