Version 4
SHEET 1 1212 760
WIRE -48 -176 -96 -176
WIRE 0 -176 -48 -176
WIRE 80 -176 48 -176
WIRE 144 -176 80 -176
WIRE 432 -176 144 -176
WIRE 912 -176 512 -176
WIRE 512 -112 224 -112
WIRE 608 -112 512 -112
WIRE 672 -112 608 -112
WIRE 720 -112 672 -112
WIRE 832 -112 720 -112
WIRE -96 -96 -96 -176
WIRE 608 -80 608 -112
WIRE 832 -80 832 -112
WIRE 224 -48 224 -112
WIRE 720 0 720 -112
WIRE -96 16 -96 -16
WIRE 832 32 832 0
WIRE 608 48 608 0
WIRE 656 48 608 48
WIRE 192 112 160 112
WIRE 224 112 224 32
WIRE 224 112 192 112
WIRE 288 112 224 112
WIRE 80 160 80 -176
WIRE 96 160 80 160
WIRE 368 160 352 160
WIRE 416 160 368 160
WIRE 720 160 720 96
WIRE 832 160 720 160
WIRE 848 160 832 160
WIRE 912 160 912 -176
WIRE 912 160 848 160
WIRE 528 176 448 176
WIRE 608 176 608 48
WIRE 608 176 592 176
WIRE 720 224 720 160
WIRE 512 240 512 -112
WIRE 352 256 304 256
WIRE 608 272 608 176
WIRE 624 272 608 272
WIRE 656 272 624 272
WIRE 288 288 288 208
WIRE 304 288 304 256
WIRE 304 288 288 288
WIRE 448 288 448 176
WIRE 448 288 416 288
WIRE 832 288 832 160
WIRE 160 304 160 208
WIRE 192 304 160 304
WIRE 224 304 192 304
WIRE 160 320 160 304
WIRE 288 320 288 288
WIRE 608 320 608 272
WIRE 416 336 416 288
WIRE 416 336 352 336
WIRE 224 368 224 304
WIRE 512 368 512 336
WIRE 528 368 512 368
WIRE 544 368 528 368
WIRE 512 400 512 368
WIRE 160 496 160 416
WIRE 288 496 288 416
WIRE 288 496 160 496
WIRE 512 496 512 480
WIRE 512 496 288 496
WIRE 608 496 608 416
WIRE 608 496 512 496
WIRE 656 496 608 496
WIRE 720 496 720 320
WIRE 720 496 656 496
WIRE 832 496 832 368
WIRE 832 496 720 496
WIRE 832 592 832 576
FLAG 832 592 0
FLAG 832 32 0
FLAG 624 272 o
FLAG -96 16 0
FLAG 848 160 out
FLAG 144 -176 a
FLAG 672 -112 plus
FLAG 656 496 minus
FLAG 528 368 b6
FLAG 416 288 b5
FLAG 192 304 c1
FLAG -48 -176 in
FLAG 192 112 e12
FLAG 368 160 in
SYMBOL EIT_Semiconductors\\pnp_o 96 112 R0
WINDOW 3 50 63 Left 2
SYMATTR Value CA3096_pnp
SYMATTR InstName Q1
SYMBOL EIT_Semiconductors\\pnp_o 352 112 M0
WINDOW 3 -36 -26 Left 2
SYMATTR Value CA3096_pnp
SYMATTR InstName Q2
SYMBOL EIT_Semiconductors\\npn 224 320 M0
SYMATTR InstName Q3
SYMATTR Value CA3046
SYMBOL EIT_Semiconductors\\npn 224 320 R0
SYMATTR InstName Q4
SYMATTR Value CA3046
SYMBOL EIT_Semiconductors\\npn 448 240 R0
SYMATTR InstName Q5
SYMATTR Value CA3046
SYMBOL EIT_Semiconductors\\npn 544 320 R0
SYMATTR InstName Q6
SYMATTR Value CA3046
SYMBOL EIT_Semiconductors\\npn 656 0 R0
SYMATTR InstName Q7
SYMATTR Value CA3046
SYMBOL EIT_Semiconductors\\pnp_o 656 224 R0
WINDOW 3 -37 -11 Left 2
SYMATTR Value CA3096_pnp
SYMATTR InstName Q8
SYMBOL source-V 832 480 R0
SYMATTR InstName V1
SYMATTR Value -10
SYMBOL source-V 832 -96 R0
SYMATTR InstName V2
SYMATTR Value +10
SYMBOL cap 592 160 R90
WINDOW 0 0 32 VBottom 2
WINDOW 3 32 32 VTop 2
SYMATTR InstName C1
SYMATTR Value 30p
SYMBOL source-I 224 32 R180
WINDOW 0 29 73 Left 2
WINDOW 3 29 17 Left 2
SYMATTR InstName I0
SYMATTR Value 20µ
SYMBOL source-I 608 0 R180
WINDOW 0 29 73 Left 2
WINDOW 3 29 17 Left 2
SYMATTR InstName I1
SYMATTR Value 200µ
SYMBOL source-I 512 480 R180
WINDOW 0 29 73 Left 2
WINDOW 3 29 17 Left 2
SYMATTR InstName I2
SYMATTR Value 20µ
SYMBOL res 416 -160 R270
WINDOW 0 25 56 VTop 2
WINDOW 3 7 56 VBottom 2
SYMATTR InstName R2
SYMATTR Value {k*10k}
SYMBOL source-V -96 -112 R0
WINDOW 123 28 56 Left 2
WINDOW 39 28 84 Left 2
WINDOW 3 -113 155 Left 2
SYMATTR Value2 AC 1
SYMATTR SpiceLine Rser=100
SYMATTR Value PULSE(0 1000m 1u 1p 1p 5u 10u)
SYMATTR InstName V3
SYMBOL res 816 272 R0
SYMATTR InstName R3
SYMATTR Value 10k
SYMBOL source-V 352 240 R0
WINDOW 123 0 0 Left 2
WINDOW 39 0 0 Left 2
SYMATTR InstName V4
SYMATTR Value 0
TEXT -168 176 Left 2 !;ac dec 30 0.1 100meg
TEXT -144 200 Left 2 !;op
TEXT 88 -144 Left 2 !.param k=1m
TEXT -136 232 Left 2 !.tran 20u
