Version 4
SHEET 1 880 680
WIRE 352 64 304 64
WIRE 352 80 352 64
WIRE 0 160 -48 160
WIRE 208 160 0 160
WIRE 304 176 272 176
WIRE 352 176 352 160
WIRE 352 176 304 176
WIRE 400 176 352 176
WIRE 416 176 400 176
WIRE -48 192 -48 160
WIRE 32 192 16 192
WIRE 48 192 32 192
WIRE 208 192 128 192
WIRE 352 192 352 176
WIRE 128 240 128 192
WIRE 304 240 304 176
WIRE 304 240 208 240
WIRE 240 272 240 208
WIRE -48 288 -48 272
WIRE 352 288 352 272
WIRE -32 416 -64 416
WIRE 16 416 16 272
WIRE 16 416 -32 416
WIRE -128 448 -128 416
WIRE -128 544 -128 528
WIRE 16 544 16 496
FLAG 240 272 0
FLAG 352 288 0
FLAG 400 176 p
FLAG 16 544 0
FLAG 32 192 r
FLAG -48 288 0
FLAG 0 160 saw
FLAG -32 416 w
FLAG -128 544 0
SYMBOL EIT_Semiconductors\\comp_oc 240 176 R0
WINDOW 3 -49 127 Left 2
SYMATTR InstName U1
SYMBOL res 336 64 R0
SYMATTR InstName R1
SYMATTR Value 9.5k
SYMBOL res 336 176 R0
SYMATTR InstName R2
SYMATTR Value 2.5k
SYMBOL source-Vmarker 304 64 R0
SYMATTR Value V=12V
SYMATTR InstName U2
SYMBOL source-V 16 176 R0
WINDOW 0 27 53 Left 2
WINDOW 3 -17 160 Left 2
WINDOW 123 0 0 Left 2
WINDOW 39 0 0 Left 2
SYMATTR InstName VR
SYMATTR Value PULSE(0 5 0 1m)
SYMBOL source-V -48 176 R0
WINDOW 0 -67 14 Left 2
WINDOW 3 -127 204 Left 2
WINDOW 123 0 0 Left 2
WINDOW 39 0 0 Left 2
SYMATTR InstName VR1
SYMATTR Value PULSE(0 5 0 10u 1p 1p 10u)
SYMBOL Function-V 16 400 R0
SYMATTR InstName B1
SYMATTR Value V=0.3*white(time*1e+7)
SYMBOL source-V -128 432 R0
WINDOW 123 0 0 Left 2
WINDOW 39 0 0 Left 2
SYMATTR InstName V1
SYMATTR Value SINE(0 1 1meg)
SYMBOL res 224 224 R90
WINDOW 0 7 56 VBottom 2
WINDOW 3 25 56 VTop 2
SYMATTR InstName R3
SYMATTR Value 100k
SYMBOL res 144 176 R90
WINDOW 0 7 56 VBottom 2
WINDOW 3 25 56 VTop 2
SYMATTR InstName R4
SYMATTR Value 10k
TEXT -7 49 Left 2 !.tran 1.2m
