Version 4
SHEET 1 880 680
WIRE 464 -64 368 -64
WIRE 368 -32 368 -64
WIRE -32 0 -80 0
WIRE 176 0 -32 0
WIRE 176 16 176 0
WIRE 48 32 16 32
WIRE 112 32 48 32
WIRE 368 64 368 48
WIRE 112 112 112 80
WIRE 176 112 176 96
WIRE 208 112 176 112
WIRE 224 112 208 112
WIRE 352 112 304 112
WIRE 416 112 352 112
WIRE 464 112 416 112
WIRE 560 112 464 112
WIRE 352 128 352 112
WIRE 464 128 464 112
WIRE -80 144 -80 0
WIRE 176 144 176 112
WIRE 560 144 560 112
WIRE 352 224 352 208
WIRE 352 224 320 224
WIRE -80 240 -80 224
WIRE 176 240 176 208
WIRE 352 240 352 224
WIRE 464 240 464 208
WIRE 560 240 560 224
WIRE 352 320 352 304
FLAG 464 240 0
FLAG 352 320 0
FLAG 176 240 0
FLAG -80 240 0
FLAG 112 112 0
FLAG 16 112 0
FLAG 48 32 crtl
FLAG 208 112 s
FLAG 416 112 a
FLAG -32 0 e
FLAG 368 64 0
FLAG 560 240 0
FLAG 320 224 cid
SYMBOL diode 192 208 R180
WINDOW 0 24 72 Left 2
WINDOW 3 24 0 Left 2
SYMATTR InstName D1
SYMATTR Value myd
SYMBOL ind 208 128 R270
WINDOW 0 30 56 VTop 2
WINDOW 3 6 56 VBottom 2
SYMATTR InstName L1
SYMATTR Value 50µ
SYMBOL cap 336 240 R0
SYMATTR InstName C1
SYMATTR Value 9.5µ
SYMBOL res 448 112 R0
SYMATTR InstName R1
SYMATTR Value {rl}
SYMBOL source-V -80 128 R0
SYMATTR InstName V1
SYMATTR Value 18V
SYMBOL crtl-V-S 176 0 R0
WINDOW 3 14 63 Left 2
SYMATTR Value mys
SYMATTR InstName S1
SYMBOL source-V 16 16 R0
WINDOW 3 -8 -41 Left 2
WINDOW 123 0 0 Left 2
WINDOW 39 0 0 Left 2
SYMATTR Value PULSE(0 2.5 0 1p 1p {p*T} {T})
SYMATTR InstName vcrtl
SYMBOL source-V 368 -48 R0
WINDOW 123 0 0 Left 2
WINDOW 39 0 0 Left 2
SYMATTR InstName V2
SYMATTR Value SINE(0 1 1meg)
SYMBOL source-I 560 224 M180
WINDOW 0 29 73 Left 2
WINDOW 3 29 17 Left 2
SYMATTR InstName I2
SYMATTR Value 0
SYMBOL res 336 112 R0
SYMATTR InstName RS
SYMATTR Value 0.2
TEXT -72 440 Left 2 !.model myd D (ROFF=1T RON=0.1m  Vfwd=0.4V)
TEXT -56 -56 Left 2 !.param p=0.2935 T=10u RL=13.12
TEXT -88 408 Left 2 !.model mys SW (ROFF=1T RON=0.1m  Vt=1.25V VH=-0.5V)
TEXT -64 -88 Left 2 !.tran 1000u
TEXT -8 -120 Left 2 ;.step param rl list 13.12 10 8 5
