Version 4
SHEET 1 964 756
WIRE 464 -64 368 -64
WIRE 368 -32 368 -64
WIRE 640 0 592 0
WIRE 960 0 816 0
WIRE 816 16 816 0
WIRE 640 32 640 0
WIRE 736 32 704 32
WIRE 368 64 368 48
WIRE 816 112 816 96
WIRE 816 112 256 112
WIRE 928 128 352 128
WIRE 960 128 960 0
WIRE 960 128 928 128
WIRE -176 160 -192 160
WIRE -96 160 -176 160
WIRE 256 160 256 112
WIRE 256 160 240 160
WIRE 736 160 736 80
WIRE 48 176 16 176
WIRE 176 176 48 176
WIRE 352 176 352 128
WIRE 448 176 432 176
WIRE 512 176 448 176
WIRE 560 176 512 176
WIRE 656 176 560 176
WIRE 448 192 448 176
WIRE 560 192 560 176
WIRE 16 208 16 176
WIRE 256 208 256 160
WIRE -368 224 -416 224
WIRE -272 224 -272 160
WIRE -272 224 -288 224
WIRE -64 224 -96 224
WIRE 176 224 176 176
WIRE -96 240 -96 224
WIRE -96 240 -176 240
WIRE -272 272 -272 224
WIRE -272 272 -368 272
WIRE -64 272 -80 272
WIRE -272 288 -272 272
WIRE -256 288 -272 288
WIRE 448 288 448 272
WIRE 448 288 416 288
WIRE -144 304 -192 304
WIRE -96 304 -96 240
WIRE -96 304 -144 304
WIRE 16 304 16 288
WIRE 256 304 256 288
WIRE 448 304 448 288
WIRE 560 304 560 272
WIRE -256 320 -304 320
WIRE 176 320 176 272
WIRE -80 336 -80 272
WIRE -368 368 -368 272
WIRE -272 368 -368 368
WIRE 448 384 448 368
WIRE 16 400 16 384
WIRE 256 400 256 384
WIRE -416 432 -416 224
WIRE 512 432 512 176
WIRE 512 432 -416 432
FLAG 368 64 0
FLAG 560 304 0
FLAG 448 384 0
FLAG 240 160 s-l
FLAG 512 176 a-l
FLAG 416 288 cid-l
FLAG -80 336 0
FLAG 16 400 0
FLAG 48 176 p-lin
FLAG 256 400 0
FLAG 176 320 0
FLAG 736 160 0
FLAG 592 80 0
FLAG 928 128 s2
FLAG -144 304 reg-l
SYMBOL source-V 368 -48 R0
WINDOW 123 0 0 Left 2
WINDOW 39 0 0 Left 2
SYMATTR InstName V2
SYMATTR Value SINE(0 1 1meg)
SYMBOL ind 336 192 R270
WINDOW 0 30 56 VTop 2
WINDOW 3 6 56 VBottom 2
SYMATTR InstName L2
SYMATTR Value 50µ
SYMBOL cap 432 304 R0
SYMATTR InstName C2
SYMATTR Value 9.5µ IC=5
SYMBOL res 544 176 R0
SYMATTR InstName R2
SYMATTR Value {rl}
SYMBOL res 432 176 R0
SYMATTR InstName RS1
SYMATTR Value {rs}
SYMBOL res -384 240 R270
WINDOW 0 25 56 VTop 2
WINDOW 3 7 56 VBottom 2
SYMATTR InstName R8
SYMATTR Value 1k
SYMBOL res -288 176 R270
WINDOW 0 25 56 VTop 2
WINDOW 3 7 56 VBottom 2
SYMATTR InstName R9
SYMATTR Value {1k*KR}
SYMBOL source-Vmarker -304 320 R0
SYMATTR InstName U6
SYMBOL crtl-V-V 16 192 R0
WINDOW 3 6 92 Left 2
SYMATTR Value {1/(vmax-vmin)}
SYMATTR InstName E1
SYMBOL source-V 16 288 R0
WINDOW 3 3 94 Left 2
SYMATTR Value {-vmin/(vmax-vmin)}
SYMATTR InstName V5
SYMBOL source-V 256 288 R0
WINDOW 3 31 79 Left 2
SYMATTR Value -0.4
SYMATTR InstName V3
SYMBOL crtl-V-V 256 192 R0
WINDOW 3 42 65 Left 2
SYMATTR Value 18.4
SYMATTR InstName E2
SYMBOL cap -112 160 R0
WINDOW 3 47 33 Left 2
SYMATTR Value 10n
SYMATTR InstName C3
SYMBOL crtl-I-V 816 0 R0
SYMATTR InstName U7
SYMATTR Value H=-1
SYMBOL cap 640 48 R270
WINDOW 0 32 32 VTop 2
WINDOW 3 0 32 VBottom 2
SYMATTR InstName C5
SYMATTR Value 50µ
SYMBOL source-V 592 -16 R0
WINDOW 3 -14 -6 Left 2
WINDOW 123 -14 22 Left 2
WINDOW 39 0 0 Left 2
SYMATTR InstName V6
SYMATTR Value PULSE(0 800m 700u)
SYMATTR Value2 AC 1
SYMBOL EIT_Semiconductors\\op_3 -224 304 R0
WINDOW 123 -101 87 Left 2
WINDOW 3 -128 104 Left 2
SYMATTR InstName U5
SYMATTR Value2 FT={ft} SR=10
SYMBOL res -192 144 R0
WINDOW 3 37 65 Left 2
SYMATTR InstName R11
SYMATTR Value {jmp}
TEXT -64 -144 Left 2 !.model myd D (ROFF=1T RON=0.1m  Vfwd=0.4V)
TEXT -344 -88 Left 2 !.param p=0.2935 T=10u RL=10 rs=300m KR=10 ft=2meg vmax=7V Vmin=4V jmp=1m
TEXT -64 -168 Left 2 !.model mys SW (ROFF=1T RON=0.1m  Vt=1.25V VH=-0.5V)
TEXT -16 -32 Left 2 !;tran 1500u uic
TEXT -8 -120 Left 2 ;.step param rl list 13.12 10 8 5
TEXT -144 -208 Left 2 !.step param kr list 10 20 30 40 50
TEXT -8 -56 Left 2 !.ac dec 300 1 200k
TEXT -352 16 Left 2 !.step param jmp 1m 1t
