Version 4
SHEET 1 904 756
WIRE 464 -64 368 -64
WIRE 368 -32 368 -64
WIRE -160 0 -224 0
WIRE -48 0 -96 0
WIRE 176 0 -48 0
WIRE -224 16 -224 0
WIRE -96 16 -96 0
WIRE 176 16 176 0
WIRE 48 32 16 32
WIRE 64 32 48 32
WIRE 112 32 64 32
WIRE 368 64 368 48
WIRE -224 112 -224 96
WIRE -96 112 -96 96
WIRE 112 112 112 80
WIRE 176 112 176 96
WIRE 208 112 176 112
WIRE 224 112 208 112
WIRE 352 112 304 112
WIRE 416 112 352 112
WIRE 464 112 416 112
WIRE 560 112 464 112
WIRE 352 128 352 112
WIRE 464 128 464 112
WIRE -32 144 -48 144
WIRE 64 144 64 32
WIRE 64 144 48 144
WIRE 176 144 176 112
WIRE 560 144 560 112
WIRE -160 224 -160 0
WIRE -128 224 -160 224
WIRE -32 224 -128 224
WIRE 352 224 352 208
WIRE 352 224 320 224
WIRE -384 240 -432 240
WIRE -288 240 -304 240
WIRE -272 240 -288 240
WIRE -176 240 -192 240
WIRE 64 240 64 144
WIRE 64 240 32 240
WIRE 112 240 64 240
WIRE 176 240 176 208
WIRE 352 240 352 224
WIRE 464 240 464 208
WIRE 560 240 560 224
WIRE -32 256 -64 256
WIRE 0 288 0 272
WIRE -288 304 -288 240
WIRE -272 304 -288 304
WIRE -176 320 -176 304
WIRE -176 320 -208 320
WIRE -160 320 -176 320
WIRE -144 320 -160 320
WIRE -64 320 -64 256
WIRE 16 320 -64 320
WIRE 112 320 112 240
WIRE 112 320 96 320
WIRE 352 320 352 304
WIRE 544 320 496 320
WIRE 864 320 720 320
WIRE -272 336 -320 336
WIRE 720 336 720 320
WIRE 544 352 544 320
WIRE 640 352 608 352
WIRE -432 416 -432 240
WIRE 416 416 416 112
WIRE 416 416 -432 416
WIRE 720 432 720 416
WIRE 720 432 160 432
WIRE 864 448 864 320
WIRE 864 448 256 448
WIRE -192 480 -224 480
WIRE 160 480 160 432
WIRE 160 480 144 480
WIRE 640 480 640 400
WIRE -48 496 -80 496
WIRE 80 496 -48 496
WIRE 256 496 256 448
WIRE 352 496 336 496
WIRE 416 496 352 496
WIRE 464 496 416 496
WIRE 560 496 464 496
WIRE 352 512 352 496
WIRE 464 512 464 496
WIRE -80 528 -80 496
WIRE 160 528 160 480
WIRE -400 544 -448 544
WIRE -304 544 -304 480
WIRE -304 544 -320 544
WIRE -160 544 -192 544
WIRE 80 544 80 496
WIRE -160 592 -176 592
WIRE -304 608 -304 544
WIRE -288 608 -304 608
WIRE 352 608 352 592
WIRE 352 608 320 608
WIRE -192 624 -192 544
WIRE -192 624 -224 624
WIRE -80 624 -80 608
WIRE 160 624 160 608
WIRE 352 624 352 608
WIRE 464 624 464 592
WIRE -288 640 -336 640
WIRE 80 640 80 592
WIRE -176 656 -176 592
WIRE 352 704 352 688
WIRE -80 720 -80 704
WIRE 160 720 160 704
WIRE -448 752 -448 544
WIRE 416 752 416 496
WIRE 416 752 -448 752
FLAG 464 240 0
FLAG 352 320 0
FLAG 176 240 0
FLAG -96 112 0
FLAG 112 112 0
FLAG 48 32 crtl
FLAG 208 112 s
FLAG 416 112 a
FLAG -48 0 e
FLAG 368 64 0
FLAG 560 240 0
FLAG 320 224 cid
FLAG 464 624 0
FLAG 352 704 0
FLAG 144 480 s-l
FLAG 416 496 a-l
FLAG 320 608 cid-l
FLAG 0 288 0
FLAG -224 112 0
FLAG -128 224 saw
FLAG -160 320 reg
FLAG -176 656 0
FLAG -80 720 0
FLAG -48 496 p-lin
FLAG 160 720 0
FLAG 80 640 0
FLAG 640 480 0
FLAG 496 400 0
SYMBOL diode 192 208 R180
WINDOW 0 24 72 Left 2
WINDOW 3 24 0 Left 2
SYMATTR InstName D1
SYMATTR Value myd
SYMBOL ind 208 128 R270
WINDOW 0 30 56 VTop 2
WINDOW 3 6 56 VBottom 2
SYMATTR InstName L1
SYMATTR Value 50µ
SYMBOL cap 336 240 R0
SYMATTR InstName C1
SYMATTR Value 9.5µ ic=5
SYMBOL res 448 112 R0
SYMATTR InstName R1
SYMATTR Value {rl}
SYMBOL source-V -96 0 R0
SYMATTR InstName V1
SYMATTR Value 18V
SYMBOL crtl-V-S 176 0 R0
WINDOW 3 14 63 Left 2
SYMATTR Value mys
SYMATTR InstName S1
SYMBOL source-V 368 -48 R0
WINDOW 123 0 0 Left 2
WINDOW 39 0 0 Left 2
SYMATTR InstName V2
SYMATTR Value SINE(0 1 1meg)
SYMBOL source-I 560 224 M180
WINDOW 0 29 73 Left 2
WINDOW 3 40 24 Left 2
WINDOW 123 0 0 Left 2
WINDOW 39 0 0 Left 2
SYMATTR InstName I2
SYMATTR Value PULSE(0 800m 700u)
SYMBOL res 336 112 R0
SYMATTR InstName RS
SYMATTR Value {rs}
SYMBOL ind 240 512 R270
WINDOW 0 30 56 VTop 2
WINDOW 3 6 56 VBottom 2
SYMATTR InstName L2
SYMATTR Value 50µ
SYMBOL cap 336 624 R0
SYMATTR InstName C2
SYMATTR Value 9.5µ IC=5
SYMBOL res 448 496 R0
SYMATTR InstName R2
SYMATTR Value {rl}
SYMBOL res 336 496 R0
SYMATTR InstName RS1
SYMATTR Value {rs}
SYMBOL EIT_Semiconductors\\op_3 -240 320 R0
SYMATTR InstName U1
SYMATTR Value2 FT={ft} SR=10
SYMBOL EIT_Semiconductors\\comp_oc 0 240 R0
SYMATTR InstName U2
SYMBOL res -160 336 R270
WINDOW 0 25 56 VTop 2
WINDOW 3 7 56 VBottom 2
SYMATTR InstName R3
SYMATTR Value 1m
SYMBOL res 0 336 R270
WINDOW 0 25 56 VTop 2
WINDOW 3 7 56 VBottom 2
SYMATTR InstName R4
SYMATTR Value 100k
SYMBOL source-V -224 0 R0
WINDOW 3 -203 -35 Left 2
WINDOW 123 0 0 Left 2
WINDOW 39 0 0 Left 2
SYMATTR Value PULSE({vmin} {vmax} 0 7u 3u 1p 10u)
SYMATTR InstName V4
SYMBOL res -48 160 R270
WINDOW 0 25 56 VTop 2
WINDOW 3 7 56 VBottom 2
SYMATTR InstName R5
SYMATTR Value 1k
SYMBOL source-Vmarker -48 144 R0
SYMATTR Value V=2.5V
SYMATTR InstName U3
SYMBOL res -400 256 R270
WINDOW 0 25 56 VTop 2
WINDOW 3 7 56 VBottom 2
SYMATTR InstName R6
SYMATTR Value 1k
SYMBOL res -288 256 R270
WINDOW 0 25 56 VTop 2
WINDOW 3 7 56 VBottom 2
SYMATTR InstName R7
SYMATTR Value {1k*KR}
SYMBOL source-Vmarker -320 336 R0
SYMATTR InstName U4
SYMBOL EIT_Semiconductors\\op_3 -256 624 R0
WINDOW 123 -125 92 Left 2
WINDOW 3 -160 65 Left 2
SYMATTR Value2 FT={ft} SR=10
SYMATTR InstName U5
SYMBOL res -416 560 R270
WINDOW 0 25 56 VTop 2
WINDOW 3 7 56 VBottom 2
SYMATTR InstName R8
SYMATTR Value 1k
SYMBOL res -320 496 R270
WINDOW 0 25 56 VTop 2
WINDOW 3 7 56 VBottom 2
SYMATTR InstName R9
SYMATTR Value {1k*KR}
SYMBOL source-Vmarker -336 640 R0
SYMATTR InstName U6
SYMBOL crtl-V-V -80 512 R0
WINDOW 3 6 92 Left 2
SYMATTR Value {1/(vmax-vmin)}
SYMATTR InstName E1
SYMBOL source-V -80 608 R0
WINDOW 3 3 94 Left 2
SYMATTR Value {-vmin/(vmax-vmin)}
SYMATTR InstName V5
SYMBOL source-V 160 608 R0
WINDOW 3 31 79 Left 2
SYMATTR Value -0.4
SYMATTR InstName V3
SYMBOL crtl-V-V 160 512 R0
WINDOW 3 42 65 Left 2
SYMATTR Value 18.4
SYMATTR InstName E2
SYMBOL cap -208 480 R0
WINDOW 3 47 33 Left 2
SYMATTR Value 1µ
SYMATTR InstName C3
SYMBOL cap -192 240 R0
WINDOW 3 41 31 Left 2
SYMATTR Value 1µ
SYMATTR InstName C4
SYMBOL crtl-I-V 720 320 R0
SYMATTR InstName U7
SYMATTR Value H=-1
SYMBOL cap 544 368 R270
WINDOW 0 32 32 VTop 2
WINDOW 3 0 32 VBottom 2
SYMATTR InstName C5
SYMATTR Value 50µ
SYMBOL source-V 496 304 R0
WINDOW 3 -14 -6 Left 2
WINDOW 123 0 0 Left 2
WINDOW 39 0 0 Left 2
SYMATTR InstName V6
SYMATTR Value PULSE(0 800m 700u)
TEXT -64 -144 Left 2 !.model myd D (ROFF=1T RON=0.1m  Vfwd=0.4V)
TEXT -344 -88 Left 2 !.param p=0.2935 T=10u RL=10 rs=300m KR=1m ft=2meg vmax=7V Vmin=4V
TEXT -64 -168 Left 2 !.model mys SW (ROFF=1T RON=0.1m  Vt=1.25V VH=-0.5V)
TEXT -16 -32 Left 2 !.tran 1500u uic
TEXT -8 -120 Left 2 ;.step param rl list 13.12 10 8 5
TEXT -144 -208 Left 2 !.step param kr list 1m 1 4
