Version 4
SHEET 1 880 680
WIRE 352 -96 288 -96
WIRE 288 -64 288 -96
WIRE 352 -32 352 -96
WIRE 560 -32 496 -32
WIRE 496 16 496 -32
WIRE 288 32 288 16
WIRE 416 32 288 32
WIRE 496 112 496 96
WIRE 288 128 288 32
WIRE 416 144 416 80
WIRE 224 176 176 176
WIRE 288 256 288 224
WIRE 416 256 416 224
WIRE 176 288 176 176
WIRE 560 288 560 -32
WIRE 560 288 176 288
FLAG 288 256 0
FLAG 416 256 0
FLAG 352 -32 0
FLAG 496 112 0
SYMBOL EIT_Semiconductors\\npn 224 128 R0
SYMATTR InstName Q1
SYMATTR Value 2N4124
SYMBOL source-V 416 128 R0
SYMATTR InstName V1
SYMATTR Value 5
SYMBOL source-I 288 16 R180
WINDOW 0 29 73 Left 2
WINDOW 3 29 17 Left 2
SYMATTR InstName I1
SYMATTR Value 1m
SYMBOL crtl-V-I 496 0 R0
SYMATTR InstName G1
SYMATTR Value 1
TEXT 16 72 Left 2 !.dc oct I1 100n 100m 10
TEXT 8 24 Left 2 !.step temp list 0 50 100
