Version 4
SHEET 1 1000 680
WIRE 576 -96 304 -96
WIRE 688 -96 576 -96
WIRE 304 -80 304 -96
WIRE 576 -80 576 -96
WIRE 688 -64 688 -96
WIRE 416 32 224 32
WIRE 640 32 464 32
WIRE 416 64 416 32
WIRE 464 64 464 32
WIRE 688 96 688 16
WIRE 304 112 304 0
WIRE 336 112 304 112
WIRE 352 112 336 112
WIRE 544 112 528 112
WIRE 576 112 576 0
WIRE 576 112 544 112
WIRE 64 160 32 160
WIRE 160 160 144 160
WIRE 192 160 160 160
WIRE 224 160 224 32
WIRE 224 160 192 160
WIRE 240 160 224 160
WIRE 640 160 640 32
WIRE 672 160 640 160
WIRE 720 160 672 160
WIRE 32 192 32 160
WIRE 160 192 160 160
WIRE 720 192 720 160
WIRE 304 224 304 208
WIRE 576 224 576 208
WIRE 32 288 32 272
WIRE 160 288 160 272
WIRE 720 304 720 272
WIRE 304 336 304 304
WIRE 576 336 576 304
WIRE 576 336 304 336
WIRE 304 368 304 336
WIRE 416 416 416 160
WIRE 464 416 464 160
WIRE 464 416 416 416
WIRE 496 416 464 416
WIRE 304 464 304 448
FLAG 304 464 0
FLAG 720 304 0
FLAG 160 288 0
FLAG 32 288 0
FLAG 688 96 0
FLAG 336 112 c1
FLAG 544 112 c2
FLAG 192 160 in
FLAG 672 160 b2
SYMBOL EIT_Semiconductors\\npn 240 112 R0
WINDOW 3 -40 98 Left 2
SYMATTR Value CA3046
SYMATTR InstName Q1
SYMBOL EIT_Semiconductors\\npn 640 112 M0
WINDOW 3 -45 106 Left 2
SYMATTR Value CA3046
SYMATTR InstName Q2
SYMBOL source-I 304 448 R180
WINDOW 0 29 73 Left 2
WINDOW 3 29 17 Left 2
SYMATTR InstName I0
SYMATTR Value 1m
SYMBOL res 288 -96 R0
SYMATTR InstName RC1
SYMATTR Value 10k
SYMBOL res 560 -96 R0
SYMATTR InstName RC2
SYMATTR Value 10k
SYMBOL res 704 176 R0
SYMATTR InstName R1
SYMATTR Value 10
SYMBOL res 144 176 R0
SYMATTR InstName R2
SYMATTR Value 10
SYMBOL res 48 176 R270
WINDOW 0 25 56 VTop 2
WINDOW 3 7 56 VBottom 2
SYMATTR InstName R3
SYMATTR Value 40
SYMBOL source-V 32 176 R0
WINDOW 3 35 84 Left 2
WINDOW 123 0 0 Left 2
WINDOW 39 0 0 Left 2
SYMATTR Value 0
SYMATTR InstName V1
SYMBOL source-V 688 -80 R0
SYMATTR InstName Vplus
SYMATTR Value 10
SYMBOL res 288 208 R0
SYMATTR InstName R4
SYMATTR Value {re}
SYMBOL res 560 208 R0
SYMATTR InstName R5
SYMATTR Value {re}
SYMBOL EIT_Semiconductors\\pnp_o 352 64 R0
WINDOW 0 36 -68 Left 2
WINDOW 3 3 107 Left 2
SYMATTR InstName Q1P
SYMATTR Value PNPx
SYMBOL EIT_Semiconductors\\pnp_o 528 64 M0
WINDOW 0 20 -64 Left 2
WINDOW 3 13 111 Left 2
SYMATTR InstName Q2P
SYMATTR Value PNPx
SYMBOL source-Vmarker 496 416 M0
SYMATTR Value V=-5V
SYMATTR InstName U1
TEXT 48 -24 Left 2 !.dc v1 -1 1 25m
TEXT 56 -176 Left 4 ;Versuch 3:Sättigung
TEXT 584 352 Left 2 !.param re 1m
TEXT 64 -128 Left 2 ;.step param re list 1m 330
TEXT 56 -72 Left 2 !.step vplus 5 10 1
TEXT 104 -240 Left 4 !.model pnpx pnp (IS=1.e-11)
