Version 4
SHEET 1 880 680
WIRE 320 -160 256 -160
WIRE 320 -144 320 -160
WIRE 320 -32 320 -64
WIRE 352 -32 320 -32
WIRE 368 -32 352 -32
WIRE 464 -32 432 -32
WIRE 480 -32 464 -32
WIRE 192 -16 176 -16
WIRE 320 -16 320 -32
WIRE 320 -16 272 -16
WIRE 320 32 320 -16
WIRE 0 80 -16 80
WIRE 96 80 80 80
WIRE 176 80 176 -16
WIRE 176 80 160 80
WIRE 208 80 176 80
WIRE 256 80 208 80
WIRE 480 80 480 -32
WIRE -16 128 -16 80
WIRE 320 144 320 128
WIRE -16 240 -16 208
WIRE 320 240 320 224
WIRE 480 240 480 160
FLAG 320 240 0
FLAG -16 240 0
FLAG 480 240 0
FLAG 464 -32 out
FLAG 352 -32 c
FLAG 208 80 b
SYMBOL EIT_Semiconductors\\npn 256 32 R0
SYMATTR InstName Q1
SYMATTR Value NPNx
SYMBOL res 304 128 R0
WINDOW 3 -159 81 Left 2
SYMATTR InstName RE
SYMATTR Value {180-var*115.7}
SYMBOL res 288 -32 R90
WINDOW 0 7 56 VBottom 2
WINDOW 3 25 56 VTop 2
SYMATTR InstName RB
SYMATTR Value 560k
SYMBOL res 304 -160 R0
SYMATTR InstName RC
SYMATTR Value 5.6k
SYMBOL source-Vmarker 256 -160 R0
SYMATTR Value V=10V
SYMATTR InstName U1
SYMBOL cap 96 96 R270
WINDOW 0 32 32 VTop 2
WINDOW 3 0 32 VBottom 2
SYMATTR InstName C1
SYMATTR Value 100n
SYMBOL res -16 96 R270
WINDOW 0 25 56 VTop 2
WINDOW 3 7 56 VBottom 2
SYMATTR InstName R1
SYMATTR Value 10k
SYMBOL source-V -16 112 R0
SYMATTR InstName V1
SYMATTR Value AC 1
SYMBOL res 464 64 R0
SYMATTR InstName RL
SYMATTR Value {1k+var*9k}
SYMBOL Elko 368 -16 R270
WINDOW 0 32 32 VTop 2
WINDOW 3 0 32 VBottom 2
SYMATTR InstName C2
SYMATTR Value 1µ
TEXT 104 304 Left 2 !.model npnx npn (IS=1.8E-15 bf={beta})
TEXT 104 336 Left 2 !.param beta=200
TEXT -48 -128 Left 2 !.op
TEXT 104 368 Left 2 !.param var=0
