Version 4
SHEET 1 1156 816
WIRE 256 -432 -560 -432
WIRE 384 -432 368 -432
WIRE 432 -432 384 -432
WIRE 256 -384 -416 -384
WIRE 400 -384 368 -384
WIRE 432 -384 400 -384
WIRE 256 -336 -336 -336
WIRE 400 -336 368 -336
WIRE 432 -336 400 -336
WIRE 256 -288 -256 -288
WIRE 400 -288 368 -288
WIRE 432 -288 400 -288
WIRE 256 -240 -176 -240
WIRE 400 -240 368 -240
WIRE 432 -240 400 -240
WIRE 256 -192 -96 -192
WIRE 400 -192 368 -192
WIRE 432 -192 400 -192
WIRE 256 -144 -16 -144
WIRE 400 -144 368 -144
WIRE 432 -144 400 -144
WIRE 256 -96 64 -96
WIRE 400 -96 368 -96
WIRE 432 -96 400 -96
WIRE 256 -48 144 -48
WIRE 416 -48 368 -48
WIRE 432 -48 416 -48
WIRE -416 64 -416 -384
WIRE 192 64 -416 64
WIRE 272 64 192 64
WIRE 464 64 384 64
WIRE 576 64 544 64
WIRE -336 96 -336 -336
WIRE 192 96 -336 96
WIRE 272 96 192 96
WIRE 416 112 384 112
WIRE 432 112 416 112
WIRE -256 128 -256 -288
WIRE 192 128 -256 128
WIRE 272 128 192 128
WIRE 432 128 432 112
WIRE -176 160 -176 -240
WIRE 192 160 -176 160
WIRE 272 160 192 160
WIRE -96 192 -96 -192
WIRE 192 192 -96 192
WIRE 272 192 192 192
WIRE -16 224 -16 -144
WIRE 192 224 -16 224
WIRE 272 224 192 224
WIRE 432 240 432 208
WIRE 64 256 64 -96
WIRE 192 256 64 256
WIRE 272 256 192 256
WIRE 144 288 144 -48
WIRE 192 288 144 288
WIRE 272 288 192 288
WIRE -560 320 -560 -432
WIRE -528 320 -560 320
WIRE 272 320 -528 320
WIRE 144 352 144 288
WIRE 64 400 64 256
WIRE -560 432 -560 320
WIRE -16 448 -16 224
WIRE -96 496 -96 192
WIRE -176 544 -176 160
WIRE -256 592 -256 128
WIRE -336 640 -336 96
WIRE -416 688 -416 64
FLAG 432 240 0
FLAG 144 432 0
FLAG 192 288 x7
FLAG 416 -48 D7_
FLAG 64 480 0
FLAG 192 256 x6
FLAG 400 -96 D6_
FLAG -16 528 0
FLAG 416 112 out
FLAG -96 576 0
FLAG -176 624 0
FLAG -256 672 0
FLAG -336 720 0
FLAG -416 768 0
FLAG 400 -384 D0_
FLAG 400 -336 D1_
FLAG 400 -288 D2_
FLAG 400 -240 D3_
FLAG 400 -192 D4_
FLAG 400 -144 D5_
FLAG 192 224 x5
FLAG 192 192 x4
FLAG 192 160 x3
FLAG 192 128 x2
FLAG 192 96 x1
FLAG 192 64 x0
FLAG -528 320 clk
FLAG 384 -432 clk_
FLAG -560 512 0
SYMBOL res 416 112 R0
SYMATTR InstName R1
SYMATTR Value 1k
SYMBOL Source-V 144 336 R0
WINDOW 123 0 0 Left 0
WINDOW 39 0 0 Left 0
SYMATTR InstName V1
SYMATTR Value PULSE(5 0 0 1n 1n {128*T} {256*t})
SYMBOL probe_dig 256 -64 R0
SYMATTR Value T=7
SYMATTR InstName U1
SYMBOL Source-V 64 384 R0
WINDOW 123 0 0 Left 0
WINDOW 39 0 0 Left 0
SYMATTR InstName V2
SYMATTR Value PULSE(5 0 0 1n 1n {64*T} {128*T})
SYMBOL probe_dig 256 -112 R0
SYMATTR Value T=6
SYMATTR InstName U2
SYMBOL Source-V -16 432 R0
WINDOW 123 0 0 Left 0
WINDOW 39 0 0 Left 0
SYMATTR InstName V3
SYMATTR Value PULSE(5 0 0 1n 1n {32*T} {64*T})
SYMBOL probe_dig 256 -160 R0
SYMATTR Value T=5
SYMATTR InstName U3
SYMBOL probe_dig 256 -208 R0
SYMATTR Value T=4
SYMATTR InstName U4
SYMBOL probe_dig 256 -256 R0
SYMATTR Value T=3
SYMATTR InstName U5
SYMBOL probe_dig 256 -304 R0
SYMATTR Value T=2
SYMATTR InstName U6
SYMBOL probe_dig 256 -352 R0
SYMATTR Value T=1
SYMATTR InstName U7
SYMBOL probe_dig 256 -400 R0
SYMATTR InstName U8
SYMATTR Value T=0
SYMBOL Source-V -96 480 R0
WINDOW 123 0 0 Left 0
WINDOW 39 0 0 Left 0
SYMATTR InstName V4
SYMATTR Value PULSE(5 0 0 1n 1n {16*T} {32*T})
SYMBOL Source-V -176 528 R0
WINDOW 123 0 0 Left 0
WINDOW 39 0 0 Left 0
SYMATTR InstName V5
SYMATTR Value PULSE(5 0 0 1n 1n {8*T} {16*T})
SYMBOL Source-V -256 576 R0
WINDOW 123 0 0 Left 0
WINDOW 39 0 0 Left 0
SYMATTR InstName V6
SYMATTR Value PULSE(5 0 0 1n 1n {4*T} {8*T})
SYMBOL Source-V -336 624 R0
WINDOW 123 0 0 Left 0
WINDOW 39 0 0 Left 0
SYMATTR InstName V7
SYMATTR Value PULSE(5 0 0 1n 1n {2*T} {4*T})
SYMBOL Source-V -416 672 R0
WINDOW 123 0 0 Left 0
WINDOW 39 0 0 Left 0
SYMATTR InstName V8
SYMATTR Value PULSE(5 0 0 1n 1n {T} {2*T})
SYMBOL probe_dig 256 -448 R0
SYMATTR Value T=-1
SYMATTR InstName U10
SYMBOL Source-V -560 416 R0
WINDOW 3 -272 141 Left 0
WINDOW 123 0 0 Left 0
WINDOW 39 0 0 Left 0
SYMATTR Value PULSE(0 5 {T*0.5} 1n 1n {T*0.5} {T})
SYMATTR InstName V9
SYMBOL EIT_Digital\\converter-dac-8bit 272 64 R0
SYMATTR InstName U11
SYMBOL res 448 80 R270
WINDOW 0 25 56 VTop 0
WINDOW 3 7 56 VBottom 0
SYMATTR InstName R2
SYMATTR Value 5k
SYMBOL source-vmarker 576 64 M0
SYMATTR InstName U12
TEXT 136 768 Left 0 !.param t=1u
TEXT -800 -360 Left 0 !.tran 260u
TEXT 264 384 Left 0 !.param vpwr$_digital=5
