Version 4
SHEET 1 1284 696
WIRE 160 -96 -48 -96
WIRE 672 -96 160 -96
WIRE -48 -64 -48 -96
WIRE 160 -32 160 -96
WIRE 672 -32 672 -96
WIRE 368 0 272 0
WIRE 576 0 496 0
WIRE 368 32 368 0
WIRE 496 32 496 0
WIRE -48 64 -48 16
WIRE 160 80 160 48
WIRE 304 80 160 80
WIRE 672 80 672 48
WIRE 672 80 560 80
WIRE 160 112 160 80
WIRE 672 112 672 80
WIRE 160 128 160 112
WIRE 672 128 672 112
WIRE 368 144 368 128
WIRE 432 144 368 144
WIRE 496 144 496 128
WIRE 496 144 432 144
WIRE -48 176 -128 176
WIRE 96 176 32 176
WIRE 272 176 272 0
WIRE 272 176 96 176
WIRE 576 176 576 0
WIRE 736 176 576 176
WIRE 768 176 736 176
WIRE 864 176 848 176
WIRE -128 224 -128 176
WIRE 32 224 32 176
WIRE 160 256 160 224
WIRE 864 256 864 176
WIRE 672 272 672 224
WIRE 160 384 160 336
WIRE 256 384 160 384
WIRE 672 384 672 352
WIRE 672 384 256 384
WIRE -128 432 -128 304
WIRE -64 432 -128 432
WIRE 256 432 256 384
WIRE -128 448 -128 432
WIRE 32 480 32 304
WIRE 64 480 32 480
WIRE 160 480 144 480
WIRE 192 480 160 480
WIRE 32 528 32 480
WIRE 160 544 160 480
WIRE -64 560 -64 432
WIRE -64 560 -112 560
WIRE 256 560 256 528
WIRE -112 592 -112 560
WIRE 160 672 160 624
WIRE 160 672 -112 672
WIRE 256 672 256 640
WIRE 256 672 160 672
WIRE 432 672 432 144
WIRE 432 672 256 672
FLAG 864 256 0
FLAG 32 528 0
FLAG -128 448 0
FLAG -48 64 0
FLAG 160 112 c1
FLAG 672 112 c2
SYMBOL npn 96 128 R0
SYMATTR InstName Q1
SYMATTR Value CA3046
SYMBOL npn 736 128 M0
SYMATTR InstName Q2
SYMATTR Value CA3046
SYMBOL npn 192 432 R0
SYMATTR InstName Q3
SYMATTR Value CA3046
SYMBOL res 864 160 R90
WINDOW 0 7 56 VBottom 0
WINDOW 3 25 56 VTop 0
SYMATTR InstName R1
SYMATTR Value 10
SYMBOL res 16 208 R0
SYMATTR InstName R2
SYMATTR Value 10
SYMBOL res -64 192 R270
WINDOW 0 25 56 VTop 0
WINDOW 3 7 56 VBottom 0
SYMATTR InstName R3
SYMATTR Value 40
SYMBOL Source-V -128 208 R0
SYMATTR InstName V1
SYMATTR Value 0
SYMBOL res 48 496 R270
WINDOW 0 25 56 VTop 0
WINDOW 3 7 56 VBottom 0
SYMATTR InstName R4
SYMATTR Value 4.7k
SYMBOL res 144 528 R0
SYMATTR InstName R5
SYMATTR Value 4.7k
SYMBOL Source-V -112 576 R0
WINDOW 123 0 0 Left 0
WINDOW 39 0 0 Left 0
SYMATTR InstName V2
SYMATTR Value 10
SYMBOL res 240 544 R0
SYMATTR InstName R6
SYMATTR Value 4.7k
SYMBOL res 144 -48 R0
SYMATTR InstName R7
SYMATTR Value 10k
SYMBOL res 656 -48 R0
SYMATTR InstName R8
SYMATTR Value 10k
SYMBOL Source-V -48 -80 R0
WINDOW 123 0 0 Left 0
WINDOW 39 0 0 Left 0
SYMATTR InstName V3
SYMATTR Value 8
SYMBOL res 144 240 R0
SYMATTR InstName R9
SYMATTR Value {re}
SYMBOL res 656 256 R0
SYMATTR InstName R10
SYMATTR Value {re}
SYMBOL pnp_o 304 32 R0
WINDOW 3 38 144 Left 0
SYMATTR Value qpnp
SYMATTR InstName Q4
SYMBOL pnp_o 560 32 M0
WINDOW 3 28 138 Left 0
SYMATTR Value qpnp
SYMATTR InstName Q5
TEXT 848 -80 Left 0 !;op
TEXT 824 -16 Left 0 !.dc v1 -1 1 10m
TEXT 824 24 Left 0 !.param re=0.1
TEXT 816 64 Left 0 ;.step param re list 1 50 100 200
TEXT 816 104 Left 0 !.model qpnp pnp (IS=1.e-9 bf=100)
TEXT 1016 16 Left 0 ;.step v3 list 6 7 8 9 10
