Version 4
SHEET 1 880 680
WIRE 336 160 288 160
WIRE 352 160 336 160
FLAG 352 240 0
FLAG 336 160 out
SYMBOL EIT_PLL\\Frequency_Phase_step 240 160 R0
SYMATTR InstName U1
SYMATTR Value f0=3k phi0=0
SYMATTR SpiceLine f1=5k phi1=90
SYMBOL res 336 144 R0
SYMATTR InstName R1
SYMATTR Value 1k
TEXT 248 88 Left 0 !.tran 2m
