Version 4
SHEET 1 956 680
WIRE 608 16 208 16
WIRE 672 16 608 16
WIRE 432 80 368 80
WIRE 464 80 432 80
WIRE 208 96 208 16
WIRE 208 96 160 96
WIRE 288 96 208 96
WIRE 848 96 752 96
WIRE 880 96 848 96
WIRE 464 112 464 80
WIRE 160 128 160 96
WIRE 368 128 368 80
WIRE 752 128 752 96
WIRE 880 128 880 96
WIRE 288 144 288 96
WIRE 672 144 672 16
WIRE 160 240 160 208
WIRE 368 240 368 208
WIRE 464 240 464 192
WIRE 672 240 672 192
WIRE 880 256 880 208
WIRE 480 304 368 304
WIRE 544 304 480 304
WIRE 368 320 368 304
WIRE 288 336 288 192
WIRE 832 352 752 352
WIRE 880 352 832 352
WIRE 752 384 752 352
WIRE 608 400 608 16
WIRE 672 400 608 400
WIRE 288 448 288 384
WIRE 672 448 640 448
WIRE 640 480 640 448
WIRE 288 560 288 528
FLAG 160 240 0
FLAG 288 560 0
FLAG 368 240 0
FLAG 464 240 0
FLAG 432 80 out_1
FLAG 368 400 0
FLAG 480 304 out_2
FLAG 752 208 0
FLAG 880 256 0
FLAG 848 96 out_3
FLAG 672 240 0
FLAG 752 464 0
FLAG 640 480 0
FLAG 832 352 out_4
SYMBOL voltage 160 112 R0
WINDOW 123 0 0 Left 0
WINDOW 39 0 0 Left 0
SYMATTR InstName V1
SYMATTR Value 5
SYMBOL res 272 432 R0
SYMATTR InstName R1
SYMATTR Value 1k
SYMBOL res 448 96 R0
SYMATTR InstName R2
SYMATTR Value 1.5k
SYMBOL crtl-i-i 368 112 R0
SYMATTR InstName U1
SYMBOL crtl-i-v 368 304 R0
SYMATTR InstName U2
SYMBOL crtl-v-i 752 112 R0
SYMATTR InstName G1
SYMATTR Value 5m
SYMBOL res 864 112 R0
SYMATTR InstName R3
SYMATTR Value 1k
SYMBOL crtl-V-V 752 368 R0
SYMATTR InstName E1
SYMATTR Value 1
TEXT 232 336 Left 0 !.op
