Version 4
SHEET 1 880 1040
WIRE 368 -32 272 -32
WIRE 400 -32 368 -32
WIRE 528 -32 512 -32
WIRE 544 -32 528 -32
WIRE 336 16 -368 16
WIRE 368 16 336 16
WIRE 400 16 368 16
WIRE 528 16 512 16
WIRE 544 16 528 16
WIRE -368 32 -368 16
WIRE -32 48 -128 48
WIRE -128 64 -128 48
WIRE -32 64 -32 48
WIRE 336 64 -32 64
WIRE 384 64 336 64
WIRE 448 64 384 64
WIRE 576 64 560 64
WIRE 592 64 576 64
WIRE 368 144 368 16
WIRE 400 144 368 144
WIRE 560 144 528 144
WIRE 592 144 560 144
WIRE 720 144 704 144
WIRE 736 144 720 144
WIRE 272 176 272 -32
WIRE 272 176 -368 176
WIRE 304 176 272 176
WIRE 400 176 304 176
WIRE -368 208 -368 176
WIRE 336 208 336 64
WIRE 400 208 336 208
WIRE 272 304 -128 304
WIRE 464 304 272 304
WIRE 464 336 464 304
WIRE 368 368 368 144
WIRE 400 368 368 368
WIRE 560 368 528 368
WIRE 592 368 560 368
WIRE 720 368 704 368
WIRE 736 368 720 368
WIRE -128 400 -128 304
WIRE -128 400 -368 400
WIRE 304 400 304 176
WIRE 400 400 304 400
WIRE -368 416 -368 400
WIRE 336 432 336 208
WIRE 400 432 336 432
WIRE 560 432 528 432
WIRE 592 432 560 432
WIRE 720 432 704 432
WIRE 736 432 720 432
WIRE -64 560 -368 560
WIRE 240 560 -64 560
WIRE 464 560 464 464
WIRE 464 560 240 560
WIRE -368 592 -368 560
WIRE -64 640 -64 560
WIRE 32 640 -64 640
WIRE 64 640 32 640
WIRE 192 640 176 640
WIRE 208 640 192 640
WIRE 368 672 368 368
WIRE 400 672 368 672
WIRE 560 672 528 672
WIRE 592 672 560 672
WIRE 720 672 704 672
WIRE 736 672 720 672
WIRE -128 688 -128 400
WIRE 0 688 -128 688
WIRE 64 688 0 688
WIRE 192 688 176 688
WIRE 208 688 192 688
WIRE 304 704 304 400
WIRE 400 704 304 704
WIRE 336 736 336 432
WIRE 400 736 336 736
WIRE 560 736 528 736
WIRE 592 736 560 736
WIRE 720 736 704 736
WIRE 736 736 720 736
WIRE 240 800 240 560
WIRE 464 800 464 768
WIRE 464 800 240 800
WIRE 272 848 272 304
WIRE 464 848 272 848
WIRE 464 896 464 848
WIRE 368 928 368 672
WIRE 400 928 368 928
WIRE 560 928 528 928
WIRE 592 928 560 928
WIRE 720 928 704 928
WIRE 736 928 720 928
WIRE 304 960 304 704
WIRE 400 960 304 960
WIRE 336 992 336 736
WIRE 400 992 336 992
WIRE 560 992 528 992
WIRE 592 992 560 992
WIRE 720 992 704 992
WIRE 736 992 720 992
FLAG -368 288 0
FLAG 560 144 out
FLAG 720 144 o_
FLAG 368 -32 clk
FLAG 528 -32 clk_
FLAG 528 16 j_
FLAG -368 112 0
FLAG 336 16 J
FLAG -368 672 0
FLAG -368 496 0
FLAG 560 368 outrs
FLAG 720 368 ors_
FLAG 32 640 clr
FLAG 192 640 clr_
FLAG 192 688 pre_
FLAG 0 688 pre
FLAG 560 432 outnrs
FLAG 720 432 orns_
FLAG 560 672 2outrs
FLAG 720 672 2ors_
FLAG 560 736 2outnrs
FLAG 720 736 2orns_
FLAG 560 928 3outrs
FLAG 720 928 3ors_
FLAG 560 992 3outnrs
FLAG 720 992 3orns_
FLAG -128 144 0
FLAG 576 64 k_
FLAG 384 64 K
SYMBOL Source-V -368 192 R0
WINDOW 3 -214 136 Left 0
WINDOW 123 0 0 Left 0
WINDOW 39 0 0 Left 0
SYMATTR Value PULSE(0 5 0 1n 1n 100n 343n)
SYMATTR InstName V1
SYMBOL EIT_Digital\\probe_dig 592 128 R0
SYMATTR Value T=1
SYMATTR InstName U2
SYMBOL Source-V -368 16 R0
WINDOW 3 -193 134 Left 0
WINDOW 123 0 0 Left 0
WINDOW 39 0 0 Left 0
SYMATTR Value PULSE(0 5 0 1n 1n 110n 310n)
SYMATTR InstName V2
SYMBOL EIT_Digital\\probe_dig 400 -48 R0
SYMATTR Value T=-1
SYMATTR InstName U3
SYMBOL EIT_Digital\\probe_dig 400 0 R0
SYMATTR Value T=-2
SYMATTR InstName U4
SYMBOL Source-V -368 576 R0
WINDOW 3 -214 136 Left 0
WINDOW 123 0 0 Left 0
WINDOW 39 0 0 Left 0
SYMATTR Value PULSE(0 5 30u)
SYMATTR InstName V3
SYMBOL Source-V -368 400 R0
WINDOW 3 -193 134 Left 0
WINDOW 123 0 0 Left 0
WINDOW 39 0 0 Left 0
SYMATTR Value PULSE(0 5 10u 1n 1n 10u)
SYMATTR InstName V4
SYMBOL EIT_Digital\\probe_dig 592 352 R0
SYMATTR Value T=2
SYMATTR InstName U6
SYMBOL EIT_Digital\\probe_dig 64 624 R0
SYMATTR Value T=-5
SYMATTR InstName U7
SYMBOL EIT_Digital\\probe_dig 64 672 R0
SYMATTR Value T=-4
SYMATTR InstName U8
SYMBOL EIT_Digital\\probe_dig 592 416 R0
SYMATTR Value T=3
SYMATTR InstName U9
SYMBOL EIT_Digital\\probe_dig 592 656 R0
SYMATTR Value T=4
SYMATTR InstName U11
SYMBOL EIT_Digital\\probe_dig 592 720 R0
SYMATTR Value T=5
SYMATTR InstName U12
SYMBOL EIT_Digital\\probe_dig 592 912 R0
SYMATTR Value T=6
SYMATTR InstName U14
SYMBOL EIT_Digital\\probe_dig 592 976 R0
SYMATTR Value T=7
SYMATTR InstName U15
SYMBOL EIT_Digital\\JKFF_RS 464 336 R0
SYMATTR InstName U5
SYMBOL Source-V -128 48 R0
WINDOW 3 28 87 Left 0
WINDOW 123 0 0 Left 0
WINDOW 39 0 0 Left 0
SYMATTR Value PULSE(0 5 0 1n 1n 210n 310n)
SYMATTR InstName V5
SYMBOL EIT_Digital\\probe_dig 448 48 R0
SYMATTR Value T=-3
SYMATTR InstName U16
SYMBOL EIT_Digital\\JKFF_S 464 896 R0
SYMATTR InstName U1
SYMBOL EIT_Digital\\JKFF_R 464 656 R0
SYMATTR InstName U10
SYMBOL EIT_Digital\\JKFF 464 128 R0
SYMATTR InstName U13
TEXT 56 -88 Left 0 !.tran 40u
TEXT -176 -120 Left 0 !.param vpwr$_digital=5
