Version 4
SHEET 1 884 680
WIRE -96 -128 -176 -128
WIRE -96 -112 -96 -128
WIRE 128 -80 80 -80
WIRE 80 -48 80 -80
WIRE 128 -32 128 -80
WIRE -240 0 -352 0
WIRE -112 16 -176 16
WIRE -96 16 -96 -32
WIRE -96 16 -112 16
WIRE -240 32 -288 32
WIRE 112 32 80 32
WIRE 128 32 112 32
WIRE 160 32 128 32
WIRE 256 32 240 32
WIRE 288 32 256 32
WIRE 384 32 368 32
WIRE 432 32 384 32
WIRE 448 32 432 32
WIRE -352 48 -352 0
WIRE 384 64 384 32
WIRE 0 80 0 32
WIRE -208 112 -208 48
WIRE -208 112 -240 112
WIRE 448 112 448 32
WIRE 448 112 416 112
WIRE 128 144 128 32
WIRE 160 144 128 144
WIRE 288 160 288 32
WIRE 288 160 224 160
WIRE -288 176 -288 32
WIRE -16 176 -288 176
WIRE 80 176 -16 176
WIRE 160 176 80 176
WIRE -16 192 -16 176
WIRE -16 288 -16 272
FLAG 0 80 0
FLAG 256 32 out
FLAG 112 32 a
FLAG -16 288 0
FLAG 80 -48 0
FLAG 80 176 in
FLAG 384 160 0
FLAG -112 16 o_c
FLAG -352 48 0
FLAG 432 32 o2
SYMBOL res 256 16 R90
WINDOW 0 4 56 VBottom 0
WINDOW 3 27 56 VTop 0
SYMATTR InstName R1
SYMATTR Value 50k
SYMBOL res 96 16 R90
WINDOW 0 4 56 VBottom 0
WINDOW 3 27 56 VTop 0
SYMATTR InstName R2
SYMATTR Value 50k
SYMBOL Source-V -16 176 R0
WINDOW 123 -83 125 Left 0
WINDOW 39 0 0 Left 0
WINDOW 3 -363 94 Left 0
SYMATTR Value2 AC 1
SYMATTR Value PULSE(-2 2 10u 1n 1n 10u 20u)
SYMATTR InstName V1
SYMBOL cap 112 -32 R0
WINDOW 3 32 -16 Left 0
SYMATTR Value 2p
SYMATTR InstName C1
SYMBOL res 384 16 R90
WINDOW 0 4 56 VBottom 0
WINDOW 3 27 56 VTop 0
SYMATTR InstName R3
SYMATTR Value 10k
SYMBOL res -112 -128 R0
SYMATTR InstName R4
SYMATTR Value 1k
SYMBOL Source-Vmarker -176 -128 R0
SYMATTR InstName U3
SYMBOL Source-Vmarker -240 112 R0
SYMATTR Value V=-1V
SYMATTR InstName U4
SYMBOL Poti 384 64 M0
WINDOW 0 -47 18 Left 0
WINDOW 3 -78 66 Left 0
WINDOW 123 -100 90 Left 0
SYMATTR InstName U5
SYMATTR Value2 Set=0
SYMBOL op_3 192 160 R0
WINDOW 123 -12 74 Left 0
WINDOW 39 -16 104 Left 0
SYMATTR InstName U1
SYMBOL comp_oc -208 16 R0
SYMATTR InstName U2
TEXT 56 352 Left 0 !.tran 100u
TEXT 192 352 Left 0 !;ac oct 30 1 100meg
