Version 4
SHEET 1 1124 680
WIRE -32 -64 -48 -64
WIRE 0 -64 -32 -64
WIRE 144 -64 96 -64
WIRE 176 -64 144 -64
WIRE 512 0 496 0
WIRE 512 48 512 0
WIRE 544 48 512 48
WIRE 640 48 608 48
WIRE 416 96 416 0
WIRE 512 96 512 48
WIRE 512 96 480 96
WIRE -160 144 -320 144
WIRE -48 144 -48 -64
WIRE -48 144 -64 144
WIRE -16 144 -48 144
WIRE 320 144 272 144
WIRE 416 144 416 96
WIRE 416 144 400 144
WIRE 512 144 416 144
WIRE 640 160 640 48
WIRE 640 160 576 160
WIRE 672 160 640 160
WIRE 704 160 672 160
WIRE 848 160 832 160
WIRE 512 176 464 176
WIRE -112 288 -112 192
WIRE 256 288 -112 288
WIRE 848 288 848 160
WIRE 848 288 256 288
FLAG 672 160 f
FLAG 256 288 f2
FLAG 144 -64 f_norm
FLAG -32 -64 phi_e
FLAG -320 224 0
SYMBOL res 416 128 R90
WINDOW 0 1 66 VBottom 0
WINDOW 3 28 71 VTop 0
SYMATTR InstName R1
SYMATTR Value 10k
SYMBOL cap 608 32 R90
WINDOW 0 0 32 VBottom 0
WINDOW 3 32 32 VTop 0
SYMATTR InstName C1
SYMATTR Value 100n ic=0
SYMBOL res 512 -16 R90
WINDOW 0 4 56 VBottom 0
WINDOW 3 27 56 VTop 0
SYMATTR InstName R2
SYMATTR Value 4k
SYMBOL op_3 544 160 R0
WINDOW 123 -148 74 Left 0
WINDOW 3 -149 47 Left 0
SYMATTR Value Vp=20 Vm=-20 Ilim=20m
SYMATTR InstName U3
SYMBOL cap 480 80 R90
WINDOW 0 0 32 VBottom 0
WINDOW 3 32 32 VTop 0
SYMATTR InstName C2
SYMATTR Value 20f
SYMBOL source-vmarker 464 176 R0
WINDOW 3 -53 0 Center 0
SYMATTR Value V=0
SYMATTR InstName U4
SYMBOL EIT_PLL\\PD_MULT_laplace 128 144 R0
SYMATTR InstName U1
SYMBOL EIT_PLL\\Subtraction -112 144 R0
SYMATTR InstName U2
SYMBOL EIT_PLL\\phase_to_frequency 64 -64 R0
SYMATTR InstName U5
SYMATTR Value K={1/1.77k}
SYMBOL EIT_PLL\\integrator 768 160 R0
SYMATTR Value KI={-2*pi*1k}
SYMATTR InstName U6
SYMBOL source-V -320 128 R0
WINDOW 3 -138 152 Left 0
WINDOW 123 0 0 Left 0
WINDOW 39 0 0 Left 0
SYMATTR InstName V1
SYMATTR Value PULSE(0 {0.7*1.77k} 1m 1)
TEXT -360 16 Left 0 !.tran 20m uic
