Version 4
SHEET 1 1124 680
WIRE 96 -416 80 -416
WIRE 128 -416 96 -416
WIRE 128 -384 96 -384
WIRE 80 -288 80 -416
WIRE 128 -288 80 -288
WIRE 96 -256 96 -384
WIRE 128 -256 96 -256
WIRE 624 -144 624 -192
WIRE 80 -96 80 -288
WIRE 128 -96 80 -96
WIRE 480 -96 480 -416
WIRE 480 -96 256 -96
WIRE 96 -64 96 -256
WIRE 128 -64 96 -64
WIRE 480 -16 480 -96
WIRE 528 -16 480 -16
WIRE 624 0 624 -64
WIRE 720 0 704 0
WIRE 720 48 720 0
WIRE 752 48 720 48
WIRE 848 48 816 48
WIRE 368 64 352 64
WIRE 384 64 368 64
WIRE 496 64 464 64
WIRE 496 80 496 64
WIRE 624 96 624 0
WIRE 720 96 720 48
WIRE 720 96 688 96
WIRE 272 112 272 64
WIRE 272 112 240 112
WIRE 80 128 80 -96
WIRE 80 128 64 128
WIRE 112 128 80 128
WIRE 368 128 368 64
WIRE 384 128 368 128
WIRE 480 144 448 144
WIRE 528 144 528 -16
WIRE 624 144 624 96
WIRE 624 144 608 144
WIRE 720 144 624 144
WIRE 1120 144 1104 144
WIRE 96 160 96 -64
WIRE 112 160 96 160
WIRE 384 160 368 160
WIRE 848 160 848 48
WIRE 848 160 784 160
WIRE 880 160 848 160
WIRE 912 160 880 160
WIRE 272 176 240 176
WIRE 720 176 672 176
WIRE 272 240 272 176
WIRE 368 240 368 160
WIRE 368 240 352 240
WIRE 384 240 368 240
WIRE 480 240 480 144
WIRE 480 240 464 240
WIRE 96 288 96 160
WIRE 256 288 96 288
WIRE 1120 288 1120 144
WIRE 1120 288 256 288
FLAG 880 160 f
FLAG 96 -416 f1
FLAG 256 288 f2
FLAG 480 144 mo
FLAG 496 80 0
SYMBOL vco_real 1040 128 R0
SYMATTR Value Kf=-1k
SYMATTR SpiceLine f0=5k
SYMATTR InstName U2
SYMBOL res 624 128 R90
WINDOW 0 1 66 VBottom 0
WINDOW 3 28 71 VTop 0
SYMATTR InstName R1
SYMATTR Value 10k
SYMBOL cap 816 32 R90
WINDOW 0 0 32 VBottom 0
WINDOW 3 32 32 VTop 0
SYMATTR InstName C1
SYMATTR Value 100n ic=0
SYMBOL res 720 -16 R90
WINDOW 0 4 56 VBottom 0
WINDOW 3 27 56 VTop 0
SYMATTR InstName R2
SYMATTR Value 4k
SYMBOL op_3 752 160 R0
WINDOW 123 -148 74 Left 0
WINDOW 3 -149 47 Left 0
SYMATTR Value Vp=10 Vm=-20 Ilim=20m
SYMATTR InstName U3
SYMBOL cap 688 80 R90
WINDOW 0 0 32 VBottom 0
WINDOW 3 32 32 VTop 0
SYMATTR InstName C2
SYMATTR Value 20n
SYMBOL source-vmarker 672 176 R0
WINDOW 3 -53 0 Center 0
SYMATTR Value V=0
SYMATTR InstName U4
SYMBOL EIT_PLL\\Frequency_Phase_step 16 128 R0
WINDOW 0 -12 -47 Left 0
SYMATTR InstName U5
SYMATTR Value f0=5k phi0=90
SYMATTR SpiceLine f1=10k phi1=0
SYMATTR Value2 t1=2ms
SYMBOL op_3 416 144 M180
WINDOW 123 -148 74 Invisible 0
WINDOW 3 -149 47 Invisible 0
SYMATTR InstName U6
SYMBOL res 480 224 R90
WINDOW 0 1 66 VBottom 0
WINDOW 3 28 71 VTop 0
SYMATTR InstName R3
SYMATTR Value 10k
SYMBOL res 368 224 R90
WINDOW 0 1 66 VBottom 0
WINDOW 3 28 71 VTop 0
SYMATTR InstName R4
SYMATTR Value 10k
SYMBOL res 480 48 R90
WINDOW 0 1 66 VBottom 0
WINDOW 3 28 71 VTop 0
SYMATTR InstName R5
SYMATTR Value 10k
SYMBOL res 368 48 R90
WINDOW 0 1 66 VBottom 0
WINDOW 3 28 71 VTop 0
SYMATTR InstName R6
SYMATTR Value 10k
SYMBOL res 608 -160 R0
SYMATTR InstName R7
SYMATTR Value 1meg
SYMBOL source-vmarker 624 -192 R0
WINDOW 3 -65 0 Center 0
SYMATTR InstName U8
SYMBOL EIT_PLL\\PD_PFD_real 112 144 R0
WINDOW 123 82 76 Left 0
WINDOW 40 83 102 Left 0
SYMATTR InstName U1
SYMBOL EIT_PLL\\PD_RS_real 128 -80 R0
SYMATTR InstName U7
SYMATTR Value Low=-5V
SYMBOL EIT_PLL\\PD_S&H_2_real 128 -272 R0
SYMATTR InstName U9
SYMBOL EIT_PLL\\PD_S&H_1_real 128 -400 R0
SYMATTR InstName U10
TEXT -200 -24 Left 0 !.tran 0 6m 0 1u uic
