Version 4
SHEET 1 880 680
WIRE 224 96 208 96
WIRE 240 96 224 96
WIRE 368 96 336 96
WIRE 512 96 480 96
WIRE 208 128 144 128
WIRE 272 128 208 128
WIRE 464 128 272 128
WIRE 464 144 464 128
WIRE 96 160 96 96
WIRE 96 160 32 160
WIRE 32 176 32 160
WIRE 144 176 144 128
WIRE 176 176 144 176
WIRE 336 176 336 96
WIRE 336 176 240 176
WIRE 96 208 96 160
WIRE 176 208 96 208
WIRE 272 208 272 128
WIRE 272 208 240 208
WIRE 400 208 384 208
WIRE 416 208 400 208
WIRE 464 272 464 224
WIRE 464 272 448 272
FLAG 208 128 osc
FLAG 32 256 0
FLAG 400 208 clk
FLAG 224 96 start
FLAG 512 96 clkn
SYMBOL Source-V 32 160 R0
WINDOW 123 0 0 Left 0
WINDOW 39 0 0 Left 0
WINDOW 3 -275 -19 Left 0
SYMATTR Value PULSE(0 2.5 50n 1n 1n 45n)
SYMATTR InstName V1
SYMBOL probe_dig 272 192 R0
SYMATTR InstName U2
SYMATTR Value T=0
SYMBOL probe_dig 96 80 R0
SYMATTR Value T=-2
SYMATTR InstName U3
SYMBOL res 448 128 R0
SYMATTR InstName R1
SYMATTR Value 20
SYMBOL Source-Vmarker 448 272 R0
SYMATTR Value V=2.5V
SYMATTR InstName U1
SYMBOL EIT_Digital\\AND_2 176 160 R0
SYMATTR InstName U4
SYMBOL probe_dig 368 80 R0
WINDOW 3 27 17 Left 0
SYMATTR InstName U5
SYMATTR Value T=1
TEXT 112 280 Left 0 !.tran 0 150n 0
TEXT 112 32 Left 0 !.param vpwr$_digital=2.5
