Version 4
SHEET 1 880 680
WIRE -80 -16 -160 -16
WIRE 128 -16 -80 -16
WIRE -240 0 -272 0
WIRE 64 0 -16 0
WIRE -272 16 -272 0
WIRE -320 48 -336 48
WIRE -240 48 -320 48
WIRE 64 64 64 48
WIRE 240 64 128 64
WIRE -80 112 -160 112
WIRE 128 112 -80 112
WIRE 240 112 240 64
WIRE 288 112 240 112
WIRE 352 112 288 112
WIRE -336 128 -336 48
WIRE -240 128 -336 128
WIRE 128 128 128 112
WIRE -336 144 -336 128
WIRE 64 144 16 144
WIRE 736 144 672 144
WIRE 768 144 736 144
WIRE 592 160 528 160
WIRE -240 176 -256 176
WIRE -256 208 -256 176
WIRE 64 208 64 192
WIRE 240 208 240 112
WIRE 240 208 128 208
WIRE 352 208 320 208
WIRE -336 256 -336 224
WIRE -16 288 -16 0
WIRE 96 288 -16 288
WIRE 16 336 16 144
WIRE 192 336 16 336
WIRE 288 336 256 336
WIRE 320 336 320 208
WIRE 320 336 288 336
WIRE -80 368 -272 368
WIRE -48 368 -80 368
WIRE 16 368 16 336
WIRE 96 368 96 288
WIRE 192 368 96 368
WIRE -640 400 -720 400
WIRE -576 400 -640 400
WIRE -272 400 -272 368
WIRE -272 400 -512 400
WIRE -224 400 -272 400
WIRE -96 400 -160 400
WIRE -48 400 -96 400
WIRE -80 496 -80 368
WIRE -48 496 -80 496
WIRE -96 512 -96 400
WIRE -48 512 -96 512
WIRE 96 528 96 368
WIRE 96 528 16 528
FLAG -336 256 0
FLAG -720 480 0
FLAG -160 64 0
FLAG -272 16 0
FLAG -80 -16 in_i
FLAG 64 64 0
FLAG 64 208 0
FLAG 288 336 sh
FLAG 288 112 smp
FLAG -80 64 0
FLAG -160 192 0
FLAG -80 112 in_n
FLAG -80 192 0
FLAG -256 208 0
FLAG 592 208 0
FLAG 672 224 0
FLAG 736 144 aus
FLAG -320 48 in1
FLAG -640 400 in2
SYMBOL Source-V -336 128 R0
WINDOW 3 -95 -22 Left 0
WINDOW 123 0 0 Left 0
WINDOW 39 0 0 Left 0
SYMATTR Value SINE(0 2 1k)
SYMATTR InstName V1
SYMBOL Source-V -720 384 R0
WINDOW 3 -95 -22 Left 0
WINDOW 123 0 0 Left 0
WINDOW 39 0 0 Left 0
SYMATTR Value SINE(0 1 1.1k)
SYMATTR InstName V2
SYMBOL crtl-v-s 128 -32 R0
SYMATTR InstName S1
SYMBOL crtl-v-s 128 112 R0
SYMATTR InstName S2
SYMBOL Linear_technology_libs\\Digital\\and -16 320 R0
WINDOW 3 16 52 Left 0
SYMATTR InstName A3
SYMBOL Linear_technology_libs\\Digital\\buf1 -576 336 R0
WINDOW 3 -31 107 Left 0
SYMATTR Value REF=0
SYMATTR InstName A4
SYMBOL Linear_technology_libs\\Digital\\or -16 448 R0
SYMATTR InstName A5
SYMBOL Linear_technology_libs\\Digital\\inv -224 336 R0
WINDOW 3 -12 96 Left 0
SYMATTR Value TD=1n
SYMATTR InstName A7
SYMBOL Linear_technology_libs\\Digital\\or 224 288 R0
WINDOW 3 -34 121 Left 0
SYMATTR Value TD=0n
SYMATTR InstName A8
SYMBOL crtl-v-i -160 -32 R0
SYMATTR InstName G1
SYMATTR Value 1m
SYMBOL res -96 -32 R0
SYMATTR InstName R1
SYMATTR Value 1k
SYMBOL res -96 96 R0
SYMATTR InstName R2
SYMATTR Value 1k
SYMBOL crtl-v-i -160 96 R0
SYMATTR InstName G2
SYMATTR Value 1m
SYMBOL crtl-V-V 672 128 R0
SYMATTR InstName E1
SYMATTR Value 1
SYMBOL Linear_technology_libs\\SpecialFunctions\\sample 432 144 R0
SYMATTR InstName A1
TEXT -8 -160 Left 0 !.tran 0 10m 0 1u
TEXT -48 -64 Left 0 !.model sw sw Ron=1 ROFF=1G VT=0.5 VH=-0.1
