Version 4
SHEET 1 880 680
WIRE 160 112 -96 112
WIRE -96 128 -96 112
WIRE 160 144 96 144
WIRE 96 160 96 144
WIRE 368 160 336 160
WIRE 400 160 368 160
WIRE 160 176 128 176
WIRE -96 240 -96 208
WIRE 128 288 128 176
WIRE 128 288 -32 288
FLAG 96 160 0
FLAG -96 240 0
FLAG 368 160 aus
FLAG -32 368 0
SYMBOL Linear_technology_libs\\SpecialFunctions\\sample 240 144 R0
WINDOW 3 -37 121 Left 0
SYMATTR InstName A1
SYMATTR Value REF=0
SYMBOL Source-V -96 112 R0
WINDOW 3 -95 -22 Left 0
WINDOW 123 0 0 Left 0
WINDOW 39 0 0 Left 0
SYMATTR Value SINE(0 2 1k)
SYMATTR InstName V1
SYMBOL Source-V -32 272 R0
WINDOW 3 -95 -22 Left 0
WINDOW 123 0 0 Left 0
WINDOW 39 0 0 Left 0
SYMATTR Value SINE(0 1 1.1k)
SYMATTR InstName V2
TEXT 8 -8 Left 0 !.tran 10m
