Version 4
SHEET 1 880 1024
WIRE 368 -32 272 -32
WIRE 400 -32 368 -32
WIRE 528 -32 512 -32
WIRE 544 -32 528 -32
WIRE 336 16 -368 16
WIRE 368 16 336 16
WIRE 400 16 368 16
WIRE 528 16 512 16
WIRE 544 16 528 16
WIRE -368 32 -368 16
WIRE 368 144 368 16
WIRE 400 144 368 144
WIRE 560 144 528 144
WIRE 592 144 560 144
WIRE 720 144 704 144
WIRE 736 144 720 144
WIRE 272 176 272 -32
WIRE 272 176 -368 176
WIRE 304 176 272 176
WIRE 400 176 304 176
WIRE -368 208 -368 176
WIRE 272 304 -128 304
WIRE 464 304 272 304
WIRE 464 336 464 304
WIRE 368 368 368 144
WIRE 400 368 368 368
WIRE 560 368 528 368
WIRE 592 368 560 368
WIRE 720 368 704 368
WIRE 736 368 720 368
WIRE -128 400 -128 304
WIRE -128 400 -368 400
WIRE 304 400 304 176
WIRE 400 400 304 400
WIRE 560 400 528 400
WIRE 592 400 560 400
WIRE 720 400 704 400
WIRE 736 400 720 400
WIRE -368 416 -368 400
WIRE -64 560 -368 560
WIRE 240 560 -64 560
WIRE 464 560 464 448
WIRE 464 560 240 560
WIRE -368 592 -368 560
WIRE -64 640 -64 560
WIRE 32 640 -64 640
WIRE 64 640 32 640
WIRE 192 640 176 640
WIRE 208 640 192 640
WIRE 368 672 368 368
WIRE 400 672 368 672
WIRE 560 672 528 672
WIRE 592 672 560 672
WIRE 720 672 704 672
WIRE 736 672 720 672
WIRE -128 688 -128 400
WIRE 0 688 -128 688
WIRE 64 688 0 688
WIRE 192 688 176 688
WIRE 208 688 192 688
WIRE 304 704 304 400
WIRE 400 704 304 704
WIRE 560 704 528 704
WIRE 592 704 560 704
WIRE 720 704 704 704
WIRE 736 704 720 704
WIRE 240 800 240 560
WIRE 464 800 464 752
WIRE 464 800 240 800
WIRE 272 848 272 304
WIRE 464 848 272 848
WIRE 464 896 464 848
WIRE 368 928 368 672
WIRE 400 928 368 928
WIRE 560 928 528 928
WIRE 592 928 560 928
WIRE 720 928 704 928
WIRE 736 928 720 928
WIRE 304 960 304 704
WIRE 400 960 304 960
WIRE 560 960 528 960
WIRE 592 960 560 960
WIRE 720 960 704 960
WIRE 736 960 720 960
FLAG -368 288 0
FLAG 560 144 out
FLAG 720 144 o_
FLAG 368 -32 clk
FLAG 528 -32 t_
FLAG 528 16 d_
FLAG -368 112 0
FLAG 336 16 d
FLAG -368 672 0
FLAG -368 496 0
FLAG 560 368 outrs
FLAG 720 368 ors_
FLAG 32 640 clr
FLAG 192 640 clr_
FLAG 192 688 pre_
FLAG 0 688 pre
FLAG 560 400 outnrs
FLAG 720 400 orns_
FLAG 560 672 2outrs
FLAG 720 672 2ors_
FLAG 560 704 2outnrs
FLAG 720 704 2orns_
FLAG 560 928 3outrs
FLAG 720 928 3ors_
FLAG 560 960 3outnrs
FLAG 720 960 3orns_
SYMBOL EIT_Digital\\TFF 464 112 R0
SYMATTR InstName U1
SYMATTR Value TD=1ns
SYMBOL Source-V -368 192 R0
WINDOW 3 -214 136 Left 0
WINDOW 123 0 0 Left 0
WINDOW 39 0 0 Left 0
SYMATTR InstName V1
SYMATTR Value PULSE(0 5 0 1n 1n 100n 1000n)
SYMBOL EIT_Digital\\probe_dig 592 128 R0
SYMATTR Value T=1
SYMATTR InstName U2
SYMBOL Source-V -368 16 R0
WINDOW 3 -193 134 Left 0
WINDOW 123 0 0 Left 0
WINDOW 39 0 0 Left 0
SYMATTR InstName V2
SYMATTR Value PULSE(0 5 0 1n 1n 110n 310n)
SYMBOL EIT_Digital\\probe_dig 400 -48 R0
SYMATTR Value T=-1
SYMATTR InstName U3
SYMBOL EIT_Digital\\probe_dig 400 0 R0
SYMATTR Value T=-2
SYMATTR InstName U4
SYMBOL Source-V -368 576 R0
WINDOW 3 -214 136 Left 0
WINDOW 123 0 0 Left 0
WINDOW 39 0 0 Left 0
SYMATTR InstName V3
SYMATTR Value PULSE(0 5 30u)
SYMBOL Source-V -368 400 R0
WINDOW 3 -193 134 Left 0
WINDOW 123 0 0 Left 0
WINDOW 39 0 0 Left 0
SYMATTR InstName V4
SYMATTR Value PULSE(0 5 10u 1n 1n 10u)
SYMBOL EIT_Digital\\TFF_RS 464 336 R0
SYMATTR InstName U5
SYMBOL EIT_Digital\\probe_dig 592 352 R0
SYMATTR Value T=2
SYMATTR InstName U6
SYMBOL EIT_Digital\\probe_dig 64 624 R0
SYMATTR Value T=-3
SYMATTR InstName U7
SYMBOL EIT_Digital\\probe_dig 64 672 R0
SYMATTR Value T=-4
SYMATTR InstName U8
SYMBOL EIT_Digital\\probe_dig 592 384 R0
SYMATTR Value T=3
SYMATTR InstName U9
SYMBOL EIT_Digital\\probe_dig 592 656 R0
SYMATTR Value T=4
SYMATTR InstName U11
SYMBOL EIT_Digital\\probe_dig 592 688 R0
SYMATTR Value T=5
SYMATTR InstName U12
SYMBOL EIT_Digital\\TFF_R 464 640 R0
SYMATTR InstName U10
SYMBOL EIT_Digital\\TFF_S 464 896 R0
SYMATTR InstName U13
SYMBOL EIT_Digital\\probe_dig 592 912 R0
SYMATTR Value T=6
SYMATTR InstName U14
SYMBOL EIT_Digital\\probe_dig 592 944 R0
SYMATTR Value T=7
SYMATTR InstName U15
TEXT 56 -88 Left 0 !.tran 40u
TEXT -176 -120 Left 0 !.param vpwr$_digital=5
