Version 4
SHEET 1 880 680
WIRE 320 48 288 48
WIRE 384 48 320 48
WIRE 512 48 464 48
WIRE 528 48 512 48
WIRE 528 112 528 48
WIRE 288 144 288 48
WIRE 144 160 0 160
WIRE 224 160 144 160
WIRE 0 192 0 160
WIRE 224 208 144 208
WIRE 144 272 144 208
WIRE 144 272 0 272
WIRE 288 272 288 224
WIRE 528 272 528 192
WIRE 0 320 0 272
FLAG 288 272 0
FLAG 528 272 0
FLAG 320 48 s
FLAG 512 48 vcc
FLAG 0 320 0
FLAG 144 160 crtl
SYMBOL res 480 32 R90
WINDOW 0 4 56 VBottom 0
WINDOW 3 27 56 VTop 0
SYMATTR InstName R1
SYMATTR Value 10
SYMBOL Source-V 528 96 R0
WINDOW 123 0 0 Left 0
WINDOW 39 0 0 Left 0
SYMATTR InstName V1
SYMATTR Value 10
SYMBOL Source-V 0 176 R0
WINDOW 3 -110 217 Left 0
WINDOW 123 0 0 Left 0
WINDOW 39 0 0 Left 0
WINDOW 0 -82 9 Left 0
SYMATTR Value PULSE(0 1 0 1m 1m 0 2m)
SYMATTR InstName V2
SYMBOL crtl-v-s 288 128 R0
SYMATTR InstName S1
SYMATTR Value swx
TEXT 192 344 Left 0 !.model swx sw (Ron=1 ROFF=100 VT=0.5 VH=-0.3)
TEXT 264 384 Left 0 !.tran 4m
TEXT 280 424 Left 0 !;dc V2 0 1 1m
