Version 4
SHEET 1 1812 680
WIRE -528 -448 -656 -448
WIRE -416 -448 -528 -448
WIRE -352 -448 -416 -448
WIRE -656 -400 -656 -448
WIRE -528 -400 -528 -448
WIRE -352 -352 -352 -448
WIRE -656 -288 -656 -336
WIRE -656 -288 -752 -288
WIRE -528 -288 -528 -336
WIRE -464 -288 -528 -288
WIRE -752 -240 -752 -288
WIRE -528 -224 -528 -288
WIRE -352 -224 -352 -288
WIRE -656 -208 -656 -288
WIRE 128 -128 -64 -128
WIRE 320 -128 128 -128
WIRE -656 -96 -656 -144
WIRE -592 -96 -656 -96
WIRE -528 -96 -528 -160
WIRE -528 -96 -592 -96
WIRE -592 -48 -592 -96
WIRE -64 -48 -64 -128
WIRE 320 -48 320 -128
WIRE -752 0 -752 -160
WIRE -464 0 -464 -288
WIRE -464 0 -752 0
WIRE -112 32 -128 32
WIRE 448 32 368 32
WIRE -128 48 -128 32
WIRE -128 112 -128 80
WIRE -64 128 -64 48
WIRE 48 128 -64 128
WIRE 80 128 48 128
WIRE 192 128 160 128
WIRE 320 128 320 48
WIRE 320 128 192 128
WIRE 448 128 448 112
WIRE 448 128 320 128
WIRE -64 208 -64 128
WIRE 48 208 48 128
WIRE 80 208 48 208
WIRE 192 208 192 128
WIRE 192 208 144 208
WIRE 320 208 320 128
WIRE -208 288 -240 288
WIRE -112 288 -128 288
WIRE 384 288 368 288
WIRE -240 304 -240 288
WIRE 384 304 384 288
WIRE 384 352 384 336
WIRE -64 384 -64 304
WIRE -64 384 -240 384
WIRE 128 384 -64 384
WIRE 320 384 320 304
WIRE 320 384 128 384
WIRE 128 464 128 384
FLAG 128 464 0
FLAG -592 -48 0
FLAG -352 -224 0
FLAG -128 112 0
FLAG 384 352 0
FLAG -416 -448 zwischenkreis
FLAG 128 -128 zwischenkreis
SYMBOL nmos 368 208 M0
SYMATTR InstName M2
SYMBOL voltage -752 -256 M0
WINDOW 123 24 42 Left 2
WINDOW 39 54 67 Left 2
SYMATTR Value2 AC 1
SYMATTR SpiceLine Rser=0.1
SYMATTR InstName V1
SYMATTR Value SINE(0 330 50)
SYMBOL res -112 272 R90
WINDOW 0 0 56 VBottom 2
WINDOW 3 32 56 VTop 2
SYMATTR InstName R10
SYMATTR Value 10
SYMBOL voltage -240 288 M0
WINDOW 123 0 0 Left 2
WINDOW 39 0 0 Left 2
SYMATTR InstName V3
SYMATTR Value PULSE(20 0 0 10u 10u 5m 10m)
SYMBOL diode -640 -336 R180
WINDOW 0 24 64 Left 2
WINDOW 3 24 0 Left 2
SYMATTR InstName D1
SYMATTR Value MMSD4148
SYMBOL diode -512 -336 R180
WINDOW 0 24 64 Left 2
WINDOW 3 24 0 Left 2
SYMATTR InstName D2
SYMATTR Value MMSD4148
SYMBOL diode -640 -144 R180
WINDOW 0 24 64 Left 2
WINDOW 3 24 0 Left 2
SYMATTR InstName D3
SYMATTR Value MMSD4148
SYMBOL diode -512 -160 R180
WINDOW 0 24 64 Left 2
WINDOW 3 24 0 Left 2
SYMATTR InstName D4
SYMATTR Value MMSD4148
SYMBOL cap -368 -352 R0
SYMATTR InstName C1
SYMATTR Value 100
SYMBOL nmos -112 -48 R0
SYMATTR InstName M3
SYMBOL nmos 368 -48 M0
SYMATTR InstName M4
SYMATTR Value BSC076N06NS3
SYMBOL ind 176 112 R90
WINDOW 0 6 56 VBottom 2
WINDOW 3 30 56 VTop 2
SYMATTR InstName L1
SYMATTR Value 10µ
SYMATTR SpiceLine Rser=1
SYMBOL cap 144 192 R90
WINDOW 0 0 32 VBottom 2
WINDOW 3 32 32 VTop 2
SYMATTR InstName C2
SYMATTR Value 33µ
SYMBOL voltage 448 16 R0
WINDOW 123 0 0 Left 2
WINDOW 39 0 0 Left 2
SYMATTR InstName V2
SYMATTR Value PULSE(20 0 0 10u 10u 5m 10m)
SYMBOL MDB_sym\\isoR 384 320 R0
SYMATTR InstName R3
SYMBOL MDB_sym\\isoR -128 64 R0
SYMATTR InstName R4
SYMBOL nmos -112 208 R0
SYMATTR InstName M1
SYMATTR Value BSC076N06NS3
TEXT -272 424 Left 2 !.tran 400m
TEXT -48 -160 Left 2 ;ext 330Vdc
TEXT -272 -432 Left 2 !.ic V(zwischenkreis)=330V
