Version 4
SHEET 1 3300 680
WIRE 608 -560 560 -560
WIRE 992 -560 736 -560
WIRE 1136 -560 992 -560
WIRE 1376 -560 1328 -560
WIRE 1376 -544 1376 -560
WIRE 1008 -528 736 -528
WIRE 1136 -528 1008 -528
WIRE 608 -512 560 -512
WIRE 1312 -512 1248 -512
WIRE 1024 -496 736 -496
WIRE 1136 -496 1024 -496
WIRE -624 -480 -720 -480
WIRE -560 -480 -624 -480
WIRE -336 -480 -480 -480
WIRE 608 -480 560 -480
WIRE 1312 -480 1312 -512
WIRE 1360 -480 1312 -480
WIRE 1040 -464 736 -464
WIRE 1136 -464 1040 -464
WIRE 608 -448 416 -448
WIRE 1312 -448 1312 -480
WIRE -720 -432 -720 -480
WIRE -144 -432 -176 -432
WIRE -16 -432 -64 -432
WIRE 1136 -432 1056 -432
WIRE -544 -400 -544 -432
WIRE 608 -400 560 -400
WIRE 784 -400 736 -400
WIRE 1136 -400 1072 -400
WIRE -496 -384 -496 -432
WIRE -448 -384 -496 -384
WIRE 1136 -368 1088 -368
WIRE 416 -352 416 -448
WIRE 448 -352 416 -352
WIRE 608 -352 560 -352
WIRE -720 -336 -720 -352
WIRE -176 -336 -176 -432
WIRE -144 -336 -176 -336
WIRE -16 -336 -16 -432
WIRE -16 -336 -80 -336
WIRE 1136 -336 1104 -336
WIRE 864 -304 464 -304
WIRE 1136 -304 928 -304
WIRE -336 -256 -336 -480
WIRE -272 -256 -336 -256
WIRE -176 -256 -176 -336
WIRE -176 -256 -192 -256
WIRE -144 -256 -176 -256
WIRE -16 -240 -16 -336
WIRE -16 -240 -80 -240
WIRE 64 -240 -16 -240
WIRE -144 -224 -176 -224
WIRE -176 -208 -176 -224
WIRE 64 -208 16 -208
WIRE 288 -208 128 -208
WIRE 416 -208 416 -352
WIRE 416 -208 352 -208
WIRE 464 -208 464 -304
WIRE 464 -208 416 -208
WIRE 784 -208 784 -400
WIRE 784 -208 496 -208
WIRE 992 -208 992 -560
WIRE 1136 -208 992 -208
WIRE 1296 -208 1248 -208
WIRE 1328 -208 1296 -208
WIRE -688 -176 -720 -176
WIRE -544 -176 -688 -176
WIRE -336 -176 -336 -256
WIRE -336 -176 -464 -176
WIRE 16 -176 16 -208
WIRE 288 -176 256 -176
WIRE 1008 -176 1008 -528
WIRE 1136 -176 1008 -176
WIRE 1296 -176 1248 -176
WIRE 1328 -176 1296 -176
WIRE -720 -144 -720 -176
WIRE 1024 -144 1024 -496
WIRE 1136 -144 1024 -144
WIRE 1296 -144 1248 -144
WIRE 1328 -144 1296 -144
WIRE 1040 -112 1040 -464
WIRE 1136 -112 1040 -112
WIRE 1296 -112 1248 -112
WIRE 1328 -112 1296 -112
WIRE -528 -96 -528 -128
WIRE 608 -80 560 -80
WIRE 1056 -80 1056 -432
WIRE 1056 -80 736 -80
WIRE 1136 -80 1056 -80
WIRE 1296 -80 1248 -80
WIRE 1328 -80 1296 -80
WIRE 256 -64 256 -176
WIRE -720 -48 -720 -64
WIRE 1072 -48 1072 -400
WIRE 1072 -48 736 -48
WIRE 1136 -48 1072 -48
WIRE 1296 -48 1248 -48
WIRE 1312 -48 1296 -48
WIRE 496 -32 496 -208
WIRE 608 -32 496 -32
WIRE 1088 -16 1088 -368
WIRE 1088 -16 736 -16
WIRE 1136 -16 1088 -16
WIRE 1296 -16 1248 -16
WIRE 1312 -16 1296 -16
WIRE 608 0 560 0
WIRE 1104 16 1104 -336
WIRE 1104 16 736 16
WIRE 1136 16 1104 16
WIRE 1296 16 1248 16
WIRE 1312 16 1296 16
WIRE 256 32 256 16
WIRE 416 32 416 -208
WIRE 608 32 416 32
WIRE 608 80 560 80
WIRE 768 80 736 80
WIRE -448 192 -448 -384
WIRE -64 192 -448 192
WIRE 192 192 64 192
WIRE 368 192 320 192
WIRE -480 224 -480 -128
WIRE -64 224 -480 224
WIRE 128 224 64 224
WIRE 768 224 768 80
WIRE 768 224 320 224
WIRE 128 352 128 224
WIRE 224 352 128 352
WIRE 768 352 768 224
WIRE 768 352 288 352
FLAG 256 32 0
FLAG -720 -48 0
FLAG 1312 -368 0
FLAG 1376 -544 0
FLAG 1296 -208 D0_
FLAG 1296 -176 D1_
FLAG 1296 -144 D2_
FLAG 1296 -112 D3_
FLAG 1296 -80 D4_
FLAG 1296 -48 D5_
FLAG 1296 -16 D6_
FLAG 1296 16 D7_
FLAG 16 -176 0
FLAG -176 -208 0
FLAG -720 -336 0
FLAG -544 -400 0
FLAG -528 -96 0
FLAG -624 -480 Vref
FLAG -688 -176 Vin
FLAG 1392 -464 Vout
SYMBOL Source-V 256 -80 R0
WINDOW 123 0 0 Left 0
WINDOW 39 0 0 Left 0
WINDOW 3 -137 164 Left 0
SYMATTR Value PULSE(0 5 1n 1n 1n {T/2}  {T})
SYMATTR InstName Vclk
SYMBOL Source-V -720 -160 R0
WINDOW 3 40 26 Bottom 0
WINDOW 123 0 0 Left 0
WINDOW 39 0 0 Left 0
WINDOW 0 33 79 Left 0
SYMATTR Value 2.98
SYMATTR InstName Vin
SYMBOL res 1296 -464 R0
SYMATTR InstName RL
SYMATTR Value 1k
SYMBOL Source-I 1248 -560 R270
WINDOW 0 27 40 VTop 0
WINDOW 3 -27 40 VBottom 0
WINDOW 123 0 0 Left 0
WINDOW 39 0 0 Left 0
SYMATTR InstName I1
SYMATTR Value 5m
SYMBOL EIT_Digital\\converter-dac-8bit 1136 -560 R0
SYMATTR InstName U1
SYMBOL EIT_Digital\\PROBE_dig 1136 -224 R0
SYMATTR Value T=0
SYMATTR InstName U10a
SYMBOL EIT_Digital\\PROBE_dig 1136 -192 R0
SYMATTR Value T=1
SYMATTR InstName U11a
SYMBOL EIT_Digital\\PROBE_dig 1136 -160 R0
SYMATTR Value T=2
SYMATTR InstName U12a
SYMBOL EIT_Digital\\PROBE_dig 1136 -128 R0
SYMATTR Value T=3
SYMATTR InstName U13a
SYMBOL EIT_Digital\\PROBE_dig 1136 -96 R0
SYMATTR Value T=4
SYMATTR InstName U14a
SYMBOL EIT_Digital\\PROBE_dig 1136 -64 R0
SYMATTR Value T=5
SYMATTR InstName U15a
SYMBOL EIT_Digital\\PROBE_dig 1136 -32 R0
SYMATTR Value T=6
SYMATTR InstName U16a
SYMBOL EIT_Digital\\PROBE_dig 1136 0 R0
SYMATTR Value T=7
SYMATTR InstName U17a
SYMBOL EIT_Digital\\PROBE_dig 448 -368 R0
SYMATTR Value T=-2
SYMATTR InstName U2
SYMBOL EIT_Digital\\Bin_up_down_counter 608 -560 R0
SYMATTR InstName U2L
SYMBOL EIT_Digital\\Bin_up_down_counter 608 -80 R0
SYMATTR InstName U2H
SYMBOL EIT_Digital\\schmitt-trigger-dif 80 -224 R0
SYMATTR InstName K1
SYMATTR Value2 VH=0.02V
SYMBOL EIT_Digital\\level-low 560 -560 R0
SYMATTR InstName U12
SYMBOL EIT_Digital\\level-low 560 -80 R0
SYMATTR InstName U13
SYMBOL EIT_Digital\\level-low 560 -400 R0
SYMATTR InstName U16
SYMBOL EIT_Digital\\level-low 560 80 R0
SYMATTR InstName U17
SYMBOL EIT_Digital\\level-high 560 -512 R0
SYMATTR InstName U18
SYMBOL cap -80 -352 R90
WINDOW 0 0 32 VBottom 0
WINDOW 3 32 32 VTop 0
SYMATTR InstName C1
SYMATTR Value 1µF ic=0V
SYMBOL res -48 -448 R90
WINDOW 0 7 56 VBottom 0
WINDOW 3 25 56 VTop 0
SYMATTR InstName Rp
SYMATTR Value 100Meg
SYMBOL res -288 -240 R270
WINDOW 0 25 56 VTop 0
WINDOW 3 3 62 VBottom 0
SYMATTR InstName R1
SYMATTR Value 40k
SYMBOL LT_original_libs\\Opamps\\opamp -112 -304 R0
SYMATTR InstName OP1
SYMBOL EIT_Digital\\DFF 256 160 M0
SYMATTR InstName U3
SYMBOL EIT_Digital\\level-high 368 192 M0
SYMATTR InstName U19
SYMBOL source-V -720 -448 R0
WINDOW 0 27 76 Left 0
WINDOW 3 23 20 Left 0
WINDOW 123 0 0 Left 0
WINDOW 39 0 0 Left 0
SYMATTR InstName Vref
SYMATTR Value -5.0V
SYMBOL LT_original_libs\\sw -576 -480 R270
SYMATTR InstName S1
SYMATTR Value ""
SYMATTR SpiceModel SWITCH
SYMBOL LT_original_libs\\sw -560 -176 R270
SYMATTR InstName S2
SYMATTR Value ""
SYMATTR SpiceModel SWITCH
SYMBOL EIT_Digital\\AND_2 288 -224 R0
SYMATTR InstName U5
SYMBOL EIT_Digital\\level-high 560 -480 R0
SYMATTR InstName U6
SYMBOL EIT_Digital\\level-high 560 0 R0
SYMATTR InstName U7
SYMBOL EIT_Digital\\DFF 0 160 M0
SYMATTR InstName U4
SYMBOL EIT_Digital\\INVERTER 272 352 M0
SYMATTR InstName U8
SYMBOL EIT_Digital\\BUFFER 880 -304 R0
SYMATTR InstName U9
SYMATTR Value TD={T/4}
TEXT -744 -656 Left 0 !.param vpwr$_digital=5
TEXT -240 -736 Left 0 ;ADC  Zweirampenverfahren (dual slope)
TEXT -744 -624 Left 0 !.tran 0 120m 0 uic
TEXT -168 -152 Left 0 !.lib opamp.sub
TEXT -744 -592 Left 0 !.model SWITCH SW(Ron=0.1 Roff=1G Vt=0.5)
TEXT -176 -656 Left 0 !.param T=0.234375ms
TEXT 88 -656 Left 0 ;Taktperiode
TEXT -184 -488 Left 0 ;Integrator mit Komparator
TEXT 256 -280 Left 0 ;Torschaltung
TEXT 288 0 Left 0 ;Takt
TEXT 456 -664 Left 0 ;8 Bit Zähler
TEXT 1160 -648 Left 0 ;Visualisierung
TEXT 1264 64 Left 0 ;Ausgangswert
TEXT -672 -336 Left 0 ;Referenzspannung
TEXT -696 -40 Left 0 ;Eingangsspannung
TEXT -80 320 Left 0 ;Schaltersteuerung
TEXT 608 264 Left 0 ;Zählerüberlauf
RECTANGLE Normal 176 -96 -288 -512 3
RECTANGLE Normal 400 64 192 -320 3
RECTANGLE Normal 848 160 432 -688 3
RECTANGLE Normal 1440 -256 1120 -672 3
RECTANGLE Normal 1440 112 1120 -240 3
RECTANGLE Normal -400 -304 -800 -560 3
RECTANGLE Normal -400 0 -800 -240 3
RECTANGLE Normal 416 416 -128 112 3
