Version 4
SHEET 1 3300 680
WIRE 400 -256 240 -256
WIRE 592 -256 496 -256
WIRE 832 -256 720 -256
WIRE 1024 -256 896 -256
WIRE 1280 -256 1152 -256
WIRE 1328 -256 1280 -256
WIRE 1424 -256 1408 -256
WIRE 832 -224 784 -224
WIRE 1024 -224 992 -224
WIRE 240 -208 240 -256
WIRE 784 -208 784 -224
WIRE 1424 -192 1424 -256
WIRE 240 -96 240 -128
WIRE 992 -96 992 -224
WIRE 1424 -80 1424 -128
WIRE 992 32 992 -16
WIRE 448 128 448 -208
WIRE 1280 128 1280 -256
WIRE 1280 128 448 128
FLAG 992 32 0
FLAG 240 -96 0
FLAG 784 -208 0
FLAG 1424 -80 0
SYMBOL Source-V 992 -112 R0
WINDOW 123 0 0 Left 0
WINDOW 39 0 0 Left 0
WINDOW 3 -374 57 Left 0
SYMATTR Value PULSE(0 5 {T/2} 1n 1n {T/2} {T})
SYMATTR InstName V1
SYMBOL LT_original_libs\\voltage 240 -224 R0
WINDOW 3 -51 -57 Left 0
WINDOW 123 0 0 Left 0
WINDOW 39 0 0 Left 0
SYMATTR InstName V2
SYMATTR Value SINE(0.5 0.5 1k)
SYMBOL EIT_PLL\\Subtraction 448 -256 R0
SYMATTR InstName U1
SYMBOL EIT_Digital\\schmitt-trigger-dif 848 -240 R0
SYMATTR InstName U3
SYMATTR Value2 VH=0.001V
SYMBOL EIT_Digital\\DFF 1088 -288 R0
SYMATTR InstName U4
SYMBOL EIT_PLL\\integrator 656 -256 R0
SYMATTR Value KI=100
SYMATTR InstName U2
SYMBOL res 1424 -272 R90
WINDOW 0 7 56 VBottom 0
WINDOW 3 25 56 VTop 0
SYMATTR InstName R1
SYMATTR Value 1k
SYMBOL cap 1408 -192 R0
SYMATTR InstName C1
SYMATTR Value 1µ
TEXT 104 96 Left 0 !.tran {10/f} uic
TEXT 104 56 Left 0 !.param vpwr$_digital=5
TEXT 104 136 Left 0 !.lib opamp.sub
TEXT 104 24 Left 0 !.param T=1us
TEXT 200 -320 Left 0 ;input voltage
TEXT 112 -48 Left 0 !.param f=1kHz
TEXT 112 -16 Left 0 !.param oversampling=1000
