Version 4
SHEET 1 3300 680
WIRE 768 -560 624 -560
WIRE 1008 -560 960 -560
WIRE 1008 -544 1008 -560
WIRE 768 -528 640 -528
WIRE 944 -512 880 -512
WIRE 768 -496 656 -496
WIRE 944 -480 944 -512
WIRE 992 -480 944 -480
WIRE 1024 -480 992 -480
WIRE 768 -464 672 -464
WIRE 944 -448 944 -480
WIRE 768 -432 688 -432
WIRE 768 -400 704 -400
WIRE 768 -368 720 -368
WIRE 576 -336 528 -336
WIRE 768 -336 736 -336
WIRE 416 -304 416 -336
WIRE 768 -304 416 -304
WIRE 128 -288 -112 -288
WIRE 624 -208 624 -560
WIRE 624 -208 576 -208
WIRE 768 -208 624 -208
WIRE 928 -208 880 -208
WIRE 960 -208 928 -208
WIRE 128 -192 128 -288
WIRE 320 -192 128 -192
WIRE 464 -192 320 -192
WIRE 640 -176 640 -528
WIRE 640 -176 576 -176
WIRE 768 -176 640 -176
WIRE 928 -176 880 -176
WIRE 960 -176 928 -176
WIRE 320 -160 224 -160
WIRE 464 -160 320 -160
WIRE 656 -144 656 -496
WIRE 656 -144 576 -144
WIRE 768 -144 656 -144
WIRE 928 -144 880 -144
WIRE 960 -144 928 -144
WIRE 672 -112 672 -464
WIRE 672 -112 576 -112
WIRE 768 -112 672 -112
WIRE 928 -112 880 -112
WIRE 960 -112 928 -112
WIRE 688 -80 688 -432
WIRE 688 -80 576 -80
WIRE 768 -80 688 -80
WIRE 928 -80 880 -80
WIRE 960 -80 928 -80
WIRE 384 -48 352 -48
WIRE 464 -48 384 -48
WIRE 704 -48 704 -400
WIRE 704 -48 576 -48
WIRE 768 -48 704 -48
WIRE 928 -48 880 -48
WIRE 944 -48 928 -48
WIRE 416 -16 416 -304
WIRE 464 -16 416 -16
WIRE 720 -16 720 -368
WIRE 720 -16 576 -16
WIRE 768 -16 720 -16
WIRE 928 -16 880 -16
WIRE 944 -16 928 -16
WIRE 0 16 -80 16
WIRE 416 16 416 -16
WIRE 416 16 0 16
WIRE 736 16 736 -336
WIRE 736 16 576 16
WIRE 768 16 736 16
WIRE 928 16 880 16
WIRE 944 16 928 16
WIRE -80 112 -80 16
FLAG -80 192 0
FLAG -112 -208 0
FLAG 128 -192 A_in
FLAG 0 16 Convert
FLAG 320 -192 inp
FLAG 320 -160 inm
FLAG 384 -48 vref
FLAG 944 -368 0
FLAG 1008 -544 0
FLAG 992 -480 vout
FLAG 928 -208 D0_
FLAG 928 -176 D1_
FLAG 928 -144 D2_
FLAG 928 -112 D3_
FLAG 928 -80 D4_
FLAG 928 -48 D5_
FLAG 928 -16 D6_
FLAG 928 16 D7_
SYMBOL Source-V -80 96 R0
WINDOW 123 0 0 Left 0
WINDOW 39 0 0 Left 0
SYMATTR InstName V1
SYMATTR Value PULSE(0 5 600n 1n 1n 0.49u 1u)
SYMBOL Source-V -112 -304 R0
WINDOW 3 -53 162 Left 0
WINDOW 123 0 0 Left 0
WINDOW 39 0 0 Left 0
SYMATTR Value SINE(0 0.49 10k)
SYMATTR InstName V3
SYMBOL res 928 -464 R0
SYMATTR InstName R1
SYMATTR Value 1k
SYMBOL Source-I 880 -560 R270
WINDOW 0 27 40 VTop 0
WINDOW 3 -27 40 VBottom 0
WINDOW 123 0 0 Left 0
WINDOW 39 0 0 Left 0
SYMATTR InstName I1
SYMATTR Value 1m
SYMBOL EIT_Digital\\Converter-ADC-8bit 464 -208 R0
SYMATTR InstName U1
SYMATTR Value Tcv=10ns
SYMBOL EIT_Digital\\converter-dac-8bit 768 -560 R0
SYMATTR InstName U10
SYMBOL EIT_Digital\\PROBE_dig 768 -224 R0
SYMATTR Value T=0
SYMATTR InstName U3
SYMBOL EIT_Digital\\PROBE_dig 768 -192 R0
SYMATTR Value T=1
SYMATTR InstName U4
SYMBOL EIT_Digital\\PROBE_dig 768 -160 R0
SYMATTR Value T=2
SYMATTR InstName U5
SYMBOL EIT_Digital\\PROBE_dig 768 -128 R0
SYMATTR Value T=3
SYMATTR InstName U6
SYMBOL EIT_Digital\\PROBE_dig 768 -96 R0
SYMATTR Value T=4
SYMATTR InstName U7
SYMBOL EIT_Digital\\PROBE_dig 768 -64 R0
SYMATTR Value T=5
SYMATTR InstName U8
SYMBOL EIT_Digital\\PROBE_dig 768 -32 R0
SYMATTR Value T=6
SYMATTR InstName U9
SYMBOL EIT_Digital\\PROBE_dig 768 0 R0
SYMATTR Value T=7
SYMATTR InstName U11
SYMBOL EIT_Digital\\PROBE_dig 416 -352 R0
SYMATTR Value T=-2
SYMATTR InstName U2
SYMBOL Source-Vmarker 224 -160 R0
SYMATTR Value V=-0.5
SYMATTR InstName U12
SYMBOL Source-Vmarker 352 -48 R0
SYMATTR Value V=1V
SYMATTR InstName U13
TEXT -168 -88 Left 0 !.param vpwr$_digital=5
TEXT -312 -392 Left 0 ;AD-Converter based on the successive approximation method.
TEXT 8 -448 Left 0 !.param tconvert=100ns
TEXT -312 224 Left 0 !.tran 100u
