* Copyright © Linear Technology Corp. 2008, 2009, 2010. All rights reserved.
*
.subckt LT6703-2 1 2 3 4
B2 N002 0 I=100u*dnlim(uplim(V(3),V(2)+18.6,.1), V(2)-.4, .1)- 424n*V(VINT) -39.568u -100u*V(2)
A1 0 N002 0 0 0 0 VINT 0 OTA g=4.7u asym isource=9u isink=-1.1u Vlow=-1e308 Vhigh=1e308 Cout=25p
C2 N006 0 500f
M1 N007 N006 2 2 NOUT temp=27
C5 4 1 .5p
C6 1 2 5p
D5 0 VINT DLAT
D13 4 2 DP
R6 4 N006 590Meg
R7 N006 2 590Meg
G3 N006 0 N006 N004 100µ dir=1 vto=0
G4 0 N006 2 N006 500m dir=1 vto=.3
C10 2 3 .5p
R3 4 N004 600Meg
A5 VINT 0 0 0 0 0 N006 0 OTA g=2m asym Vlow=-1e308 Vhigh=1e308 isource=1u isink=-.115u
C14 N007 N006 50f
D8 N002 0 DINNLP
D9 0 N002 DINNLN
C7 0 N002 10f Rpar=40Meg
D1 N004 2 DNL
R1 N004 2 400Meg
R2 1 N007 1
G1 4 2 1 N007 .1
D2 N003 2 DBR
R4 4 N003 10Meg
D3 N003 3 DB1
D4 N003 3 DB2
C1 N003 2 10f
.model DINNLP D(Vfwd=200m Ron=300k Roff=400Meg epsilon=30m)
.model DINNLN D(Vfwd=40m epsilon=10m Ron=100k Roff=400Meg)
.model NOUT VDMOS(Vto=5m kp=150m mtriode=.8  rds=600g)
.model DNL D(Vfwd=.9 epsilon=.3 Ron=100k Roff=400Meg)
.model DP  D(Ron=100 Roff=1G Vfwd=1 ilimit=6.04u)
.model DBR D(Ron=10K Roff=1G Vfwd=.55 epsilon=.1)
.model DB1 D(Ron=50Meg Roff=1T Vfwd=60m epsilon=100m ilimit=1.8n)
.model DB2 D(Ron=35Meg Roff=1T Vfwd=450m epsilon=50m)
.model DLAT D(Ron=1 Roff=10Meg Vfwd=.5 Vrev=1 epsilon=.5 revepsilon=.5)
.ends LT6703-2
*
.subckt LT6703-3 1 2 3 4
A1 0 N002 0 0 0 0 VINT 0 OTA g=4.7u asym isource=3.5u isink=-1.5u Vlow=-1e308 Vhigh=1e308 Cout=25p
C2 N006 0 500f
M1 N007 N006 2 2 NOUT temp=27
C5 4 1 .5p
C6 1 2 5p
D5 0 VINT DLAT
D13 4 2 DP
R6 4 N006 590Meg
R7 N006 2 590Meg
G3 N006 0 N006 N004 100µ dir=1 vto=0
G4 0 N006 2 N006 500m dir=1 vto=.3
C10 2 3 .5p
R3 4 N004 600Meg
A5 VINT 0 0 0 0 0 N006 0 OTA g=2m asym Vlow=-1e308 Vhigh=1e308 isource=1u isink=-.115u
C14 N007 N006 50f
D8 N002 0 DINNLP
D9 0 N002 DINNLN
C7 0 N002 10f Rpar=40Meg
D1 N004 2 DNL
R1 N004 2 400Meg
R2 1 N007 1
G1 4 2 1 N007 .1
B2 0 N002 I=100u*dnlim(uplim(V(3),V(2)+18.6,.1), V(2)-.4, .1)+322n*V(VINT) -39.658u-100u*V(2)
D2 N003 2 DBR
R4 4 N003 10Meg
D3 N003 3 DB1
D4 N003 3 DB2
C3 N003 2 10f
.model DINNLP D(Vfwd=10m Ron=200k Roff=400Meg epsilon=10m)
.model DINNLN D(Vfwd=350m epsilon=10m Ron=100k Roff=400Meg)
.model NOUT VDMOS(Vto=5m kp=150m mtriode=.8  rds=600g)
.model DNL D(Vfwd=.9 epsilon=.3 Ron=100k Roff=400Meg)
.model DP  D(Ron=100 Roff=1G Vfwd=1 ilimit=6.04u)
.model DBR D(Ron=10K Roff=1G Vfwd=.55 epsilon=.1)
.model DB1 D(Ron=50Meg Roff=1T Vfwd=60m epsilon=100m ilimit=1.8n)
.model DB2 D(Ron=35Meg Roff=1T Vfwd=450m epsilon=50m)
.model DLAT D(Ron=1 Roff=10Meg Vfwd=1 Vrev=1 epsilon=.5 revepsilon=.5)
.ends LT6703-3
*
.subckt LTC6084 1 2 3 4 5 6
B1 0 N004 I=10u*dnlim(uplim(V(1),V(3)+.2,.1), V(4)-.2, .1)+1n*V(1)-67.7655p
B2 N004 0 I=10u*dnlim(uplim(V(2),V(3)+.21,.1), V(4)-.21, .1)+1n*V(2)
C10 N004 0 1f Rpar=100K noiseless
M1 5 N012 4 4 NI temp=27
C2 3 5 1p Rpar=100Meg noiseless
D5 N012 4 DLIMN
M2 5 N008 3 3 PI temp=27
D8 3 N008 DLIMP
C3 3 N008 28f Rser=5Meg noiseless
A3 N009 N010 4 4 4 4 N008 4 OTA g=200n ref=-37m linear vlow=-1e308 vhigh=1e308
C11 5 4 1p Rpar=100Meg noiseless
C12 N012 4 28f Rser=5Meg noiseless
A4 0 N004 0 0 0 0 N006 0 OTA g=1u linear en=29.7n enk=88 Vhigh=1e308 Vlow=-1e308
C16 N010 5 3.8p
A5 N007 0 N009 N009 N009 N009 N010 N009 OTA g=36u iout=1.9u Vhigh=1e308 Vlow=-1e308
G1 4 N012 N010 N009 200n
D9 N010 N009 DLIM
C7 3 1 4.5p Rser=10 Rpar=5T noiseless
C13 3 4 1000p
S1 N010 N009 0 N005 SHUT2
C1 N006 0 800f Rpar=1Meg noiseless
C17 4 6 500f Rpar=1T noiseless
G2 0 N009 4 0 .5m
G4 0 N009 3 0 .5m
C18 N009 0 200p Rpar=1K noiseless
S4 N008 3 0 N005 SHUT1
S2 4 N012 0 N005 SHUT1
S7 3 4 N005 0 SPOW
G3 0 N007 N006 0 1m
L1 N007 0 431.7µ Cpar=637f Rser=1.06k Rpar=12.1k noiseless
C9 N008 5 5f Rser=8Meg noiseless
C8 5 N012 5f Rser=8Meg noiseless
A2 6 4 0 0 0 0 N005 0 SCHMITT trise=6u tfall=.8u vt=.8 vh=10m
D2 3 6 DSHUT
D6 2 3 DESD
D7 4 2 DESD
D10 1 3 DESD
D11 4 1 DESD
D1 1 4 DBIAS
D3 2 4 DBIAS
C4 3 2 4.5p Rser=10 Rpar=5T noiseless
C5 1 4 4.5p Rser=10 Rpar=5T noiseless
C6 2 4 4.5p Rser=10 Rpar=5T noiseless
A1 2 1 0 0 0 0 0 0 OTA g=0 in=-5.2184p+5.22p*exp(freq*9e-7)
.model DSHUT D(Ron=85k Roff=1Meg Vfwd=.1 epsilon=50m ilimit=1u  noiseless)
.model DBIAS D(Ron=10G Roff=10T epsilon=.3 ilimit=1p noiseless)
.model SPOW SW(level=2 Ron=1k Roff=1G vt=.5 vh=-.1 ilimit=34.3u noiseless)
.model SHUT1 SW(Ron=100k Roff=100G vt=-.8 vh=-100m Vser=300m noiseless)
.model SHUT2 SW(Ron=1k Roff=100G vt=-.8 vh=-100m noiseless)
.model NI VDMOS(Vto=300m kp=30m lambda=.01)
.model PI VDMOS(Vto=-300m Kp=30m lambda=.01 pchan)
.model DLIM D(Ron=100k Roff=70Meg Vfwd=200m Vrev=200m epsilon=10m revepsilon=10m noiseless)
.model DESD D(Ron=10 Roff=10T Vfwd=.7 epsilon=.1 noiseless)
.model DLIMN D(Ron=100k Roff=100Meg Vfwd=1.1 Vrev=-300m epsilon=.1  noiseless)
.model DLIMP D(Ron=100k Roff=100Meg Vfwd=1.3 Vrev=-300m  epsilon=10m revepsilon=10m noiseless)
.ends LTC6084
*
.subckt LTC6085 1 2 3 4 5
B1 0 N004 I=10u*dnlim(uplim(V(1),V(3)+.2,.1), V(4)-.2, .1)+1n*V(1)-67.7655p
B2 N004 0 I=10u*dnlim(uplim(V(2),V(3)+.21,.1), V(4)-.21, .1)+1n*V(2)
C10 N004 0 1f Rpar=100K noiseless
M1 5 N011 4 4 NI temp=27
C2 3 5 1p Rpar=100Meg noiseless
D5 N011 4 DLIMN
M2 5 N007 3 3 PI temp=27
D8 3 N007 DLIMP
C3 3 N007 28f Rser=5Meg noiseless
A3 N008 N009 4 4 4 4 N007 4 OTA g=200n ref=-37m linear vlow=-1e308 vhigh=1e308
C11 5 4 1p Rpar=100Meg noiseless
C12 N011 4 28f Rser=5Meg noiseless
A4 0 N004 0 0 0 0 N005 0 OTA g=1u linear en=29.7n enk=88 Vhigh=1e308 Vlow=-1e308
C16 N009 5 3.8p
A5 N006 0 N008 N008 N008 N008 N009 N008 OTA g=36u iout=1.9u Vhigh=1e308 Vlow=-1e308
G1 4 N011 N009 N008 200n
D9 N009 N008 DLIM
C7 3 1 4.5p Rser=10 Rpar=5T noiseless
C13 3 4 1000p
C1 N005 0 800f Rpar=1Meg noiseless
G2 0 N008 4 0 .5m
G4 0 N008 3 0 .5m
C18 N008 0 200p Rpar=1K noiseless
G3 0 N006 N005 0 1m
L1 N006 0 431.7µ Cpar=637f Rser=1.06k Rpar=12.1k noiseless
C9 N007 5 5f Rser=8Meg noiseless
C8 5 N011 5f Rser=8Meg noiseless
D6 2 3 DESD
D7 4 2 DESD
D10 1 3 DESD
D11 4 1 DESD
D1 1 4 DBIAS
D3 2 4 DBIAS
C4 3 2 4.5p Rser=10 Rpar=5T noiseless
C5 1 4 4.5p Rser=10 Rpar=5T noiseless
C6 2 4 4.5p Rser=10 Rpar=5T noiseless
A1 2 1 0 0 0 0 0 0 OTA g=0 in=-5.2184p+5.22p*exp(freq*9e-7)
D4 3 4 DPOW
.model DBIAS D(Ron=100G Roff=10T epsilon=.3 ilimit=1p noiseless)
.model DPOW D(Ron=1k Roff=1G Vfwd=.1 epsilon=50m ilimit=34.3u noiseless)
.model SHUT1 SW(Ron=100k Roff=100G vt=-.8 vh=-100m Vser=300m noiseless)
.model SHUT2 SW(Ron=1k Roff=100G vt=-.8 vh=-100m noiseless)
.model NI VDMOS(Vto=300m kp=30m lambda=.01)
.model PI VDMOS(Vto=-300m Kp=30m lambda=.01 pchan)
.model DLIM D(Ron=100k Roff=70Meg Vfwd=200m Vrev=200m epsilon=10m revepsilon=10m noiseless)
.model DESD D(Ron=10 Roff=10T Vfwd=.7 epsilon=.1 noiseless)
.model DLIMN D(Ron=100k Roff=100Meg Vfwd=1.1 Vrev=-300m epsilon=.1  noiseless)
.model DLIMP D(Ron=100k Roff=100Meg Vfwd=1.3 Vrev=-300m  epsilon=10m revepsilon=10m noiseless)
.ends LTC6085
*
.subckt LTC6102 1 2 3 4 5 6
M2 1 N004 6 6 P temp=27
C3 6 1 .1p
C4 1 2 .1p
D1 3 4 DINCL
C5 3 2 .2p
C6 4 2 .2p
A1 0 N003 2 2 2 2 N006 2 OTA g=200u iout=50u Cout=1p en=5n + 6u/dnlim(freq**.88,800,300) Vlow=-1e308 Vhigh=1e308
R1 N006 2 100G noiseless
G1 N006 2 N006 5 10µ dir=1 vto=-490m
D3 4 2 DBIAS
C1 N003 0 10f Rpar=200K noiseless
S1 N003 0 2 5 SWP1
G4 2 N004 N006 2 10µ
C2 N004 2 1p Rpar=100k noiseless
S2 5 N006 2 5 SWP2
D2 5 N007 DLIM1
G6 N007 5 5 2 1.9n
D4 5 N007 DLIM2
C7 1 N006 3p
G2 2 N006 2 N006 10µ dir=1 vto=-400m
C8 5 N007 .1f Rpar=1g noiseless
S3 N006 5 N007 N006 SWLIM
D6 4 3 DINCL2
B1 0 N003 I=10u*dnlim(uplim(V(4),V(5)+.1,.1), V(5)-2.1, .1)
B2 N003 0 I=10u*dnlim(uplim(V(3),V(5)+.1,.1), V(5)-2.1, .1)
D8 5 2 DP
D7 3 2 DBIAS
R4 5 2 373k noiseless
D11 2 1 DZ0
D5 3 5 DZ2
D12 3 5 DZ1
D9 6 5 DZ2
.model DINCL D(Ron=10k Roff=100G Vfwd=.7 Vrev=.7 epsilon=.1 revepsilon=.1 noiseless)
.model DINCL2 D(Ron=100 Roff=100g Vfwd=.21 epsilon=.1 noiseless)
.model DBIAS D(Ron=200k Roff=1T Vfwd= .4 epsilon=.15 ilimit=60p)
.model SWP1 SW(Ron=1 Roff=200k vt=-3.9 vh=-100m noiseless)
.model SWP2 SW(Ron=10 Roff=200G vt=-3.9 vh=-100m noiseless)
.model DLIM1 D(Ron=25Meg Roff=1g vfwd=3 epsilon=.5 noiseless)
.model DLIM2 D(Ron=600Meg Roff=1g vfwd=.7 epsilon=.1  noiseless)
.model SWLIM SW(Ron=1k Roff=200G vt=50m vh=-10m noiseless)
.model DZ1 D(Ron=5k Roff=100G Vfwd=100 epsilon=100m Vrev=5.1 revepsilon=.1 noiseless)
.model DZ2 D(Ron=1 Roff=100G Vfwd=100 epsilon=100m Vrev=10.1 revepsilon=.1 noiseless)
.model DZ0 D(Ron=10 Roff=1g vfwd=700m epsilon=100m vrev=9.5 revepsilon=.1 noiseless)
.model P VDMOS(Vto=-500m Kp=1m  rds=1g pchan)
.model DP D(Roff=1G Ron=100 Vfwd=0.5 epsilon=.1 ilimit=275u)
.ends LTC6102
*
.subckt LTC6103 1 2 3 4 5 6 7
M2 1 N004 6 6 P temp=27
C3 6 1 .1p
C4 1 3 .1p
D7 7 3 DP
D1 6 7 DINCL
C5 6 7 .2p
C6 7 3 .2p
A1 0 N003 3 3 3 3 N005 3 OTA g=200u iout=50u Cout=1p Vlow=-1e308 Vhigh=1e308
R1 N005 3 100G noiseless
G1 N005 3 N005 6 10µ dir=1 vto=-490m
D3 7 3 DBIAS
G3 0 N003 7 6 10µ
C1 N003 0 10f Rpar=200K noiseless
S1 N003 0 3 6 SWP1
G4 3 N004 N005 3 10µ
C2 N004 3 1p Rpar=100k noiseless
S2 6 N005 3 6 SWP2
D2 6 N006 DLIM1
G6 N006 6 6 3 1.9n
D4 6 N006 DLIM2
C7 1 N005 3.8p
G2 3 N005 3 N005 10µ dir=1 vto=-400m
C8 6 N006 .1f Rpar=1g noiseless
S3 N005 6 N006 N005 SWLIM
D6 7 6 DINCL2
M1 2 N011 5 5 P temp=27
C9 5 2 .1p
C10 2 3 .1p
D8 4 3 DP
D9 5 4 DINCL
C11 5 4 .2p
C12 4 3 .2p
A2 0 N010 3 3 3 3 N012 3 OTA g=200u iout=50u Cout=1p Vlow=-1e308 Vhigh=1e308
R10 N012 3 100G noiseless
G5 N012 3 N012 5 10µ dir=1 vto=-490m
D10 4 3 DBIAS
G7 0 N010 4 5 10µ
C13 N010 0 10f Rpar=200K noiseless
S4 N010 0 3 5 SWP1
G8 3 N011 N012 3 10µ
C14 N011 3 1p Rpar=100k noiseless
S5 5 N012 3 5 SWP2
D11 5 N013 DLIM1
G9 N013 5 5 3 1.9n
D12 5 N013 DLIM2
C15 2 N012 3.8p
G10 3 N012 3 N012 10µ dir=1 vto=-400m
C16 5 N013 .1f Rpar=1g noiseless
S6 N012 5 N013 N012 SWLIM
D14 4 5 DINCL2
D15 3 2 DZB
D5 3 1 DZB
.model DINCL D(Ron=10k Roff=100G Vfwd=.7 Vrev=.7 epsilon=.1 revepsilon=.1 noiseless)
.model DINCL2 D(Ron=100 Roff=100g Vfwd=2.1 epsilon=.1 noiseless)
.model DBIAS D(Ron=200k Roff=1T Vfwd= .4 epsilon=.15 ilimit=100n)
.model SWP1 SW(Ron=1 Roff=200k vt=-3.9 vh=-100m noiseless)
.model SWP2 SW(Ron=10 Roff=200G vt=-3.9 vh=-100m noiseless)
.model DLIM1 D(Ron=25Meg Roff=1g vfwd=3 epsilon=.5 noiseless)
.model DLIM2 D(Ron=600Meg Roff=1g vfwd=.7 epsilon=.1 noiseless)
.model SWLIM SW(Ron=1k Roff=200G vt=50m vh=-10m noiseless)
.model DZB D(Ron=10 Roff=1g vfwd=.7 epsilon=.1 vrev=10.1 revepsilon=100m noiseless)
.model P VDMOS(Vto=-500m Kp=1m  rds=1g pchan)
.model DP D(Roff=1G Ron=100 Vfwd=0.5 epsilon=.1 ilimit=220u)
.ends LTC6103
*
.subckt LTC6400-8 1 2 3 4 5 6 7 8 9 10
M1 N002 N013 6 6 NI temp=27
D5 N013 6 DLIMN
M2 N002 N006 3 3 PI temp=27
D8 3 N006 DLIMP
C3 3 N006 .01f Rser=100 noiseless
A3 N007 N009 6 6 6 6 N006 6 OTA g=200n ref=-55m linear vlow=-1e308 vhigh=1e308
A5 N005 0 N007 N007 N007 N007 N009 N007 OTA g=3m iout=2.4m cout=1f Vhigh=1e308 Vlow=-1e308
G1 6 N013 N009 N007 200n
D9 N009 N007 DLIM
C7 3 VINP 1p Rser=500 Rpar=2G noiseless
C13 3 6 1000p
S1 N009 N007 0 N011 SHUT2
C17 6 7 500f
S4 N006 3 0 N011 SHUT1
S2 6 N013 0 N011 SHUT1
A2 6 7 0 0 0 0 N011 0 SCHMITT trise=70n tfall=180n vt=-.8 vh=10m
D6 VINM 3 DESD
D7 6 VINM DESD
D11 6 VINP DESD
M3 N020 N028 6 6 NI temp=27
D3 N028 6 DLIMN
M4 N020 N024 3 3 PI temp=27
D12 3 N024 DLIMP
A6 N007 N025 6 6 6 6 N024 6 OTA g=200n ref=-55m linear vlow=-1e308 vhigh=1e308
A7 0 N005 N007 N007 N007 N007 N025 N007 OTA g=3m iout=2.4m cout=1f Vhigh=1e308 Vlow=-1e308
G5 6 N028 N025 N007 200n
D13 N025 N007 DLIM
S3 N025 N007 0 N011 SHUT2
S5 N024 3 0 N011 SHUT1
S6 6 N028 0 N011 SHUT1
R3 N002 N017 1Meg noiseless
R4 N020 N017 1Meg noiseless
G6 N007 N025 0 VCM 150µ
G7 N007 N009 0 VCM 150µ
C2 3 N002 .5p Rpar=1Meg noiseless
C8 N002 6 .5p Rpar=1Meg noiseless
C9 3 N020 .5p Rpar=1Meg noiseless
C11 N020 6 .5p Rpar=1Meg noiseless
C14 N009 N002 1p
C16 N020 N025 1p
D2 3 6 DPOWS
S7 6 3 N011 0 SPOWR
D1 Vocmf 3 DESD
D4 6 Vocmf DESD
D17 7 3 DESD
D18 6 7 DESD
C10 N005 0 1.2p Rpar=70 noiseless
B1 0 N004 I=10u*dnlim(uplim(V(VINP),V(3)-1.1,.1), V(6)+.9, .1)+1n*V(VINP)
B2 N004 0 I=10u*dnlim(uplim(V(VINM),V(3)-1.09,.1), V(6)+.89, .1)+1n*V(VINM)
C20 N004 0 .1f Rpar=100K noiseless
G8 0 N007 6 0 .5m
G9 0 N007 3 0 .5m
C21 N007 0 200p Rpar=1K noiseless
R5 N002 10 50
C24 10 9 2.7p
D16 VINP 3 DESD
C12 N013 6 .01f Rser=100 noiseless
C15 3 N024 .01f Rser=100 noiseless
C19 N028 6 .01f Rser=100 noiseless
A4 0 N004 0 0 0 0 N005 0 OTA g=100m linear en=1.3n enk=16.5k Vhigh=1e308 Vlow=-1e308
R12 4 N002 12.5
R6 9 N020 50
R13 5 N020 12.5
R2 VINM 1 200
R8 VINP 8 200
R1 N002 VINM 500
R7 N020 VINP 500
R14 Vocmf 2 2k
C18 6 Vocmf 5.3p Rpar=300k noiseless
D19 7 6 DEN
B3 0 N023 I=10u*dnlim(uplim(V(Vocmf),V(3)-1.3,.1), V(6)+.9, .1)+1n*V(vocmf)
C27 N023 0 .1f Rpar=100K noiseless
G2 N023 0 N017 0 10µ
A8 0 N023 0 0 0 0 VCM 0 OTA g=1.7m iout=100u en=3n enk=16.5k ref=8.5m Vlow=-1e308 Vhigh=1e308
S10 3 N006 N002 3 SUPLIM
S11 3 N024 N020 3 SUPLIM
C1 3 VINM 1p Rser=500 Rpar=2G noiseless
C4 VINP 6 1p Rser=500 Rpar=2G noiseless
C5 VINM 6 1p Rser=500 Rpar=2G noiseless
D10 N005 0 DLIM0
C6 VCM 0 10f Rser=1k Rpar=10k noiseless
.model SHUT1 SW(Ron=100k Roff=100G vt=-.8 vh=-100m Vser=300m noiseless)
.model SHUT2 SW(Ron=1k Roff=100G vt=-.8 vh=-100m noiseless)
.model SUPLIM SW(Ron=100k Roff=1G vt=-390m vh=-120m noiseless)
.model NI VDMOS(Vto=300m kp=200m lambda=.1)
.model PI VDMOS(Vto=-300m Kp=200m lambda=.1 pchan)
.model DLIMN D(Ron=100k Roff=100Meg Vfwd=.8 Vrev=-300m epsilon=10m  noiseless)
.model DLIMP D(Ron=100k Roff=100Meg Vfwd=.8 Vrev=-300m  epsilon=10m revepsilon=10m noiseless)
.model DCML D(Ron=10 Roff=10k Vfwd=500m epsilon=10m Vrev=500m revepsilon=10m noiseless)
.model DLIM D(Ron=100 Roff=7k Vfwd=3 Vrev=3 epsilon=50m revepsilon=50m noiseless)
.model DSI D(IS=1e-20 TT=1p noiseless)
.model DLIM0 D(Ron=10 Roff=10Meg Vfwd=1.05 Vrev=1.05 epsilon=50m revepsilon=50m noiseless)
.model DESD D(Ron=100 Roff=1G Vfwd=.7 epsilon=.1 noiseless)
.model DEN D(Ron=1k Roff=100Meg Vfwd=.4 epsilon=.1 ilimit=12u noiseless)
.model DPOWS D(Ron=100 Roff=1G Vfwd=2 epsilon=.1 ilimit=.9m noiseless)
.model SPOWR SW(level=1 Ron=10 Roff=1g vt=.5 vh=-.1 ilimit=72.6m noiseless)
.ends LTC6400-8
*
.subckt LTC6400-14 1 2 3 4 5 6 7 8 9 10
M1 N002 N014 6 6 NI temp=27
D5 N014 6 DLIMN
M2 N002 N006 3 3 PI temp=27
D8 3 N006 DLIMP
C3 3 N006 .01f Rser=100 noiseless
A3 N007 N009 6 6 6 6 N006 6 OTA g=200n ref=-55m linear vlow=-1e308 vhigh=1e308
A5 N005 0 N007 N007 N007 N007 N009 N007 OTA g=3m linear cout=1f Vhigh=1e308 Vlow=-1e308
G1 6 N014 N009 N007 200n
D9 N009 N007 DLIM
C7 3 VINP 1p Rser=500 Rpar=2G noiseless
C13 3 6 1000p
S1 N009 N007 0 N011 SHUT2
C17 6 7 500f
S4 N006 3 0 N011 SHUT1
S2 6 N014 0 N011 SHUT1
A2 6 7 0 0 0 0 N011 0 SCHMITT trise=70n tfall=180n vt=-.8 vh=10m
D6 VINM 3 DESD
D7 6 VINM DESD
D11 6 VINP DESD
M3 N021 N029 6 6 NI temp=27
D3 N029 6 DLIMN
M4 N021 N025 3 3 PI temp=27
D12 3 N025 DLIMP
A6 N007 N026 6 6 6 6 N025 6 OTA g=200n ref=-55m linear vlow=-1e308 vhigh=1e308
A7 0 N005 N007 N007 N007 N007 N026 N007 OTA g=3m linear cout=1f Vhigh=1e308 Vlow=-1e308
G5 6 N029 N026 N007 200n
D13 N026 N007 DLIM
S3 N026 N007 0 N011 SHUT2
S5 N025 3 0 N011 SHUT1
S6 6 N029 0 N011 SHUT1
R3 N002 N018 1Meg noiseless
R4 N021 N018 1Meg noiseless
G6 N007 N026 0 VCM 150µ
G7 N007 N009 0 VCM 150µ
C2 3 N002 .5p Rpar=1Meg noiseless
C8 N002 6 .5p Rpar=1Meg noiseless
C9 3 N021 .5p Rpar=1Meg noiseless
C11 N021 6 .5p Rpar=1Meg noiseless
C14 N009 N002 500f
C16 N021 N026 500f
D2 3 6 DPOWS
S7 6 3 N011 0 SPOWR
D1 Vocmf 3 DESD
D4 6 Vocmf DESD
D17 7 3 DESD
D18 6 7 DESD
C10 N005 0 1.4p Rpar=70 noiseless
B1 0 N004 I=10u*dnlim(uplim(V(VINP),V(3)-1.1,.1), V(6)+.9, .1)+1n*V(VINP)
B2 N004 0 I=10u*dnlim(uplim(V(VINM),V(3)-1.09,.1), V(6)+.89, .1)+1n*V(VINM)
C20 N004 0 .05f Rpar=100K noiseless
G8 0 N007 6 0 .5m
G9 0 N007 3 0 .5m
C21 N007 0 200p Rpar=1K noiseless
R5 N002 10 50
C24 10 9 2.7p
D16 VINP 3 DESD
C12 N014 6 .01f Rser=100 noiseless
C15 3 N025 .01f Rser=100 noiseless
C19 N029 6 .01f Rser=100 noiseless
A4 0 N004 0 0 0 0 N005 0 OTA g=100m linear en=1.3n enk=15k Vhigh=1e308 Vlow=-1e308
R12 4 N002 12.5
R6 9 N021 50
R13 5 N021 12.5
R2 VINM 1 100
R8 VINP 8 100
R1 N002 VINM 500
R7 N021 VINP 500
R14 Vocmf 2 2k
C18 6 Vocmf 5.3p Rpar=300k noiseless
D19 7 6 DEN
B3 0 N024 I=10u*dnlim(uplim(V(Vocmf),V(3)-1.3,.1), V(6)+.9, .1)+1n*V(vocmf)
C27 N024 0 .1f Rpar=100K noiseless
G2 N024 0 N018 0 10µ
A8 0 N024 0 0 0 0 VCM 0 OTA g=1.7m iout=100u en=3n enk=16.5k ref=8.5m Vlow=-1e308 Vhigh=1e308
S10 3 N006 N002 3 SUPLIM
S11 3 N025 N021 3 SUPLIM
C1 3 VINM 1p Rser=500 Rpar=2G noiseless
C4 VINP 6 1p Rser=500 Rpar=2G noiseless
C5 VINM 6 1p Rser=500 Rpar=2G noiseless
D10 N005 0 DLIM0
D14 N005 N013 DLIMI
C22 N013 0 1p Rpar=100k noiseless
C6 VCM 0 60f Rser=3k Rpar=10k noiseless
.model SHUT1 SW(Ron=100k Roff=100G vt=-.8 vh=-100m Vser=300m noiseless)
.model SHUT2 SW(Ron=1k Roff=100G vt=-.8 vh=-100m noiseless)
.model SUPLIM SW(Ron=100k Roff=1G vt=-390m vh=-120m noiseless)
.model NI VDMOS(Vto=300m kp=200m lambda=.1)
.model PI VDMOS(Vto=-300m Kp=200m lambda=.1 pchan)
.model DLIMN D(Ron=100k Roff=100Meg Vfwd=.8 Vrev=-300m epsilon=10m  noiseless)
.model DLIMP D(Ron=100k Roff=100Meg Vfwd=.8 Vrev=-300m  epsilon=10m revepsilon=10m noiseless)
.model DCML D(Ron=10 Roff=10k Vfwd=500m epsilon=10m Vrev=500m revepsilon=10m noiseless)
.model DLIM D(Ron=100 Roff=7k Vfwd=3 Vrev=3 epsilon=50m revepsilon=50m noiseless)
.model DSI D(IS=1e-20 TT=1p noiseless)
.model DLIM0 D(Ron=10 Roff=10Meg Vfwd=473m Vrev=473m epsilon=50m revepsilon=50m noiseless)
.model DLIMI D(Ron=1 Roff=100Meg Vfwd=120m Vrev=120m epsilon=10m revepsilon=10m noiseless)
.model DESD D(Ron=100 Roff=1G Vfwd=.7 epsilon=.1 noiseless)
.model DEN D(Ron=1k Roff=100Meg Vfwd=.4 epsilon=.1 ilimit=12u noiseless)
.model DPOWS D(Ron=100 Roff=1G Vfwd=2 epsilon=.1 ilimit=.9m noiseless)
.model SPOWR SW(level=1 Ron=10 Roff=1g vt=.5 vh=-.1 ilimit=72.6m noiseless)
.ends LTC6400-14
*
.subckt LTC6400-20 1 2 3 4 5 6 7 8 9 10
M1 N002 N015 6 6 NI temp=27
D5 N015 6 DLIMN
M2 N002 N006 3 3 PI temp=27
D8 3 N006 DLIMP
C3 3 N006 .01f Rser=100 noiseless
A3 N007 N009 6 6 6 6 N006 6 OTA g=200n ref=-55m linear vlow=-1e308 vhigh=1e308
A5 N005 0 N007 N007 N007 N007 N009 N007 OTA g=3m linear cout=1f Vhigh=1e308 Vlow=-1e308
G1 6 N015 N009 N007 200n
D9 N009 N007 DLIM
C7 3 VINP 1p Rser=500 Rpar=2G noiseless
C13 3 6 1000p
S1 N009 N007 0 N011 SHUT2
C17 6 7 500f
S4 N006 3 0 N011 SHUT1
S2 6 N015 0 N011 SHUT1
A2 6 7 0 0 0 0 N011 0 SCHMITT trise=70n tfall=180n vt=-.8 vh=10m
D6 VINM 3 DESD
D7 6 VINM DESD
D11 6 VINP DESD
M3 N022 N030 6 6 NI temp=27
D3 N030 6 DLIMN
M4 N022 N026 3 3 PI temp=27
D12 3 N026 DLIMP
A6 N007 N027 6 6 6 6 N026 6 OTA g=200n ref=-55m linear vlow=-1e308 vhigh=1e308
A7 0 N005 N007 N007 N007 N007 N027 N007 OTA g=3m linear cout=1f Vhigh=1e308 Vlow=-1e308
G5 6 N030 N027 N007 200n
D13 N027 N007 DLIM
S3 N027 N007 0 N011 SHUT2
S5 N026 3 0 N011 SHUT1
S6 6 N030 0 N011 SHUT1
R3 N002 N019 1Meg noiseless
R4 N022 N019 1Meg noiseless
G6 N007 N027 0 N013 100µ
G7 N007 N009 0 N013 100µ
C2 3 N002 .5p Rpar=1Meg noiseless
C8 N002 6 .5p Rpar=1Meg noiseless
C9 3 N022 .5p Rpar=1Meg noiseless
C11 N022 6 .5p Rpar=1Meg noiseless
C14 N009 N002 400f
C16 N022 N027 400f
D2 3 6 DPOWS
S7 6 3 N011 0 SPOWR
D1 Vocmf 3 DESD
D4 6 Vocmf DESD
D17 7 3 DESD
D18 6 7 DESD
C10 N005 0 7f Rpar=7k noiseless
B1 0 N004 I=10u*dnlim(uplim(V(VINP),V(3)-1.3,.1), V(6)+.9, .1)+1n*V(VINP)
B2 N004 0 I=10u*dnlim(uplim(V(VINM),V(3)-1.29,.1), V(6)+.89, .1)+1n*V(VINM)
C20 N004 0 .1f Rpar=100K noiseless
G8 0 N007 6 0 .5m
G9 0 N007 3 0 .5m
C21 N007 0 200p Rpar=1K noiseless
R5 N002 10 50
C24 10 9 1.7p
D16 VINP 3 DESD
C12 N015 6 .01f Rser=100 noiseless
C15 3 N026 .01f Rser=100 noiseless
C19 N030 6 .01f Rser=100 noiseless
A4 0 N004 0 0 0 0 N005 0 OTA g=1m linear en=1n+freq*2.5e-18 enk=10.5k Vhigh=1e308 Vlow=-1e308
R12 4 N002 12.5
R6 9 N022 50
R13 5 N022 12.5
R2 VINM 1 100
R8 VINP 8 100
R1 N002 VINM 1k
R7 N022 VINP 1k
R14 Vocmf 2 2k
C18 6 Vocmf 5.3p Rpar=300k noiseless
D19 7 6 DEN
B3 0 N025 I=10u*dnlim(uplim(V(Vocmf),V(3)-1.3,.1), V(6)+.9, .1)+1n*V(vocmf)
C27 N025 0 .1f Rpar=100K noiseless
G2 N025 0 N019 0 10µ
A8 0 N025 0 0 0 0 N013 0 OTA g=1.7m iout=1m en=3n enk=10.5k ref=7.8m Vlow=-1e308 Vhigh=1e308
C26 N013 0 30f Rser=1k Rpar=10k noiseless
S10 3 N006 N002 3 SUPLIM
S11 3 N026 N022 3 SUPLIM
C1 3 VINM 1p Rser=500 Rpar=2G noiseless
C4 VINP 6 1p Rser=500 Rpar=2G noiseless
C5 VINM 6 1p Rser=500 Rpar=2G noiseless
D10 N005 N014 DLIMI
C6 N014 0 22f Rpar=100k noiseless
D14 N005 0 DLIM0
.model SHUT1 SW(Ron=100k Roff=100G vt=-.8 vh=-100m Vser=300m noiseless)
.model SHUT2 SW(Ron=1k Roff=100G vt=-.8 vh=-100m noiseless)
.model SUPLIM SW(Ron=100k Roff=1G vt=-620m vh=-200m noiseless)
.model NI VDMOS(Vto=300m kp=200m lambda=.1)
.model PI VDMOS(Vto=-300m Kp=200m lambda=.1 pchan)
.model DLIMN D(Ron=100k Roff=100Meg Vfwd=.7 Vrev=-300m epsilon=10m  noiseless)
.model DLIMP D(Ron=100k Roff=100Meg Vfwd=.7 Vrev=-300m  epsilon=10m revepsilon=10m noiseless)
.model DCML D(Ron=10 Roff=10k Vfwd=500m epsilon=10m Vrev=500m revepsilon=10m noiseless)
.model DLIM D(Ron=100 Roff=7k Vfwd=3 Vrev=3 epsilon=50m revepsilon=50m noiseless)
.model DLIM0 D(Ron=100 Roff=100Meg Vfwd=330m Vrev=330m epsilon=20m revepsilon=20m noiseless)
.model DLIMI D(Ron=1 Roff=100Meg Vfwd=50m Vrev=50m epsilon=10m revepsilon=10m noiseless)
.model DESD D(Ron=100 Roff=1G Vfwd=.7 epsilon=.1 noiseless)
.model DEN D(Ron=1k Roff=100Meg Vfwd=.4 epsilon=.1 ilimit=12u noiseless)
.model DPOWS D(Ron=100 Roff=1G Vfwd=2 epsilon=.1 ilimit=1m noiseless)
.model SPOWR SW(level=1 Ron=10 Roff=1g vt=.5 vh=-.1 ilimit=80.17m noiseless)
.ends LTC6400-20
*
.subckt LTC6400-26 1 2 3 4 5 6 7 8 9 10
M1 N002 N014 6 6 NI temp=27
D5 N014 6 DLIMN
M2 N002 N005 3 3 PI temp=27
D8 3 N005 DLIMP
C3 3 N005 .01f Rser=100 noiseless
A3 N006 N008 6 6 6 6 N005 6 OTA g=200n ref=-55m linear vlow=-1e308 vhigh=1e308
A5 VLIMI 0 N006 N006 N006 N006 N008 N006 OTA g=3m linear cout=1f Vhigh=1e308 Vlow=-1e308
G1 6 N014 N008 N006 200n
D9 N008 N006 DLIM
C7 3 VINP 1p Rser=500 Rpar=2G noiseless
C13 3 6 1000p
S1 N008 N006 0 N010 SHUT2
C17 6 7 500f
S4 N005 3 0 N010 SHUT1
S2 6 N014 0 N010 SHUT1
A2 6 7 0 0 0 0 N010 0 SCHMITT trise=70n tfall=180n vt=-.8 vh=10m
D6 VINM 3 DESD
D7 6 VINM DESD
D11 6 VINP DESD
M3 N021 N029 6 6 NI temp=27
D3 N029 6 DLIMN
M4 N021 N025 3 3 PI temp=27
D12 3 N025 DLIMP
A6 N006 N026 6 6 6 6 N025 6 OTA g=200n ref=-55m linear vlow=-1e308 vhigh=1e308
A7 0 VLIMI N006 N006 N006 N006 N026 N006 OTA g=3m linear cout=1f Vhigh=1e308 Vlow=-1e308
G5 6 N029 N026 N006 200n
D13 N026 N006 DLIM
S3 N026 N006 0 N010 SHUT2
S5 N025 3 0 N010 SHUT1
S6 6 N029 0 N010 SHUT1
R3 N002 N018 1Meg noiseless
R4 N021 N018 1Meg noiseless
G6 N006 N026 0 N012 100µ
G7 N006 N008 0 N012 100µ
C2 3 N002 .5p Rpar=1Meg noiseless
C8 N002 6 .5p Rpar=1Meg noiseless
C9 3 N021 .5p Rpar=1Meg noiseless
C11 N021 6 .5p Rpar=1Meg noiseless
C14 N008 N002 300f
C16 N021 N026 300f
D2 3 6 DPOWS
S7 6 3 N010 0 SPOWR
D1 Vocmf 3 DESD
D4 6 Vocmf DESD
D17 7 3 DESD
D18 6 7 DESD
C10 VLIMI 0 10f Rpar=7k noiseless
B1 0 N004 I=10u*dnlim(uplim(V(VINP),V(3)-1.3,.1), V(6)+.9, .1)+1n*V(VINP)
B2 N004 0 I=10u*dnlim(uplim(V(VINM),V(3)-1.29,.1), V(6)+.89, .1)+1n*V(VINM)
C20 N004 0 .5f Rpar=100K noiseless
G8 0 N006 6 0 .5m
G9 0 N006 3 0 .5m
C21 N006 0 200p Rpar=1K noiseless
R5 N002 10 50
C24 10 9 1.7p
D16 VINP 3 DESD
C12 N014 6 .01f Rser=100 noiseless
C15 3 N025 .01f Rser=100 noiseless
C19 N029 6 .01f Rser=100 noiseless
A4 0 N004 0 0 0 0 VLIMI 0 OTA g=1m linear en=1.1n/(1+1.5*freq**2/1e18) enk=13.9k Vhigh=1e308 Vlow=-1e308
R12 4 N002 12.5
R6 9 N021 50
R13 5 N021 12.5
R2 VINM 1 25
R8 VINP 8 25
R1 N002 VINM 500
R7 N021 VINP 500
R14 Vocmf 2 2k
C18 6 Vocmf 5.3p Rpar=300k noiseless
D19 7 6 DEN
B3 0 N024 I=10u*dnlim(uplim(V(Vocmf),V(3)-1.3,.1), V(6)+.9, .1)+1n*V(vocmf)
C27 N024 0 .1f Rpar=100K noiseless
G2 N024 0 N018 0 10µ
A8 0 N024 0 0 0 0 N012 0 OTA g=1.7m iout=1m en=3n enk=13.9k ref=7.8m Vlow=-1e308 Vhigh=1e308
S10 3 N005 N002 3 SUPLIM
S11 3 N025 N021 3 SUPLIM
C1 3 VINM 1p Rser=500 Rpar=2G noiseless
C4 VINP 6 1p Rser=500 Rpar=2G noiseless
C5 VINM 6 1p Rser=500 Rpar=2G noiseless
D10 VLIMI N013 DLIMI
C6 N013 0 18f Rpar=100k noiseless
D14 VLIMI 0 DLIM0
C22 N012 0 70f Rser=5k Rpar=10k noiseless
.model SHUT1 SW(Ron=100k Roff=100G vt=-.8 vh=-100m Vser=300m noiseless)
.model SHUT2 SW(Ron=1k Roff=100G vt=-.8 vh=-100m noiseless)
.model SUPLIM SW(Ron=100k Roff=1G vt=-430m vh=-120m noiseless)
.model NI VDMOS(Vto=300m kp=200m lambda=.1)
.model PI VDMOS(Vto=-300m Kp=200m lambda=.1 pchan)
.model DLIMN D(Ron=100k Roff=100Meg Vfwd=.9 Vrev=-300m epsilon=10m  noiseless)
.model DLIMP D(Ron=100k Roff=100Meg Vfwd=.9 Vrev=-300m  epsilon=10m revepsilon=10m noiseless)
.model DCML D(Ron=10 Roff=10k Vfwd=500m epsilon=10m Vrev=500m revepsilon=10m noiseless)
.model DLIM D(Ron=100 Roff=7k Vfwd=3 Vrev=3 epsilon=50m revepsilon=50m noiseless)
.model DLIM0 D(Ron=100 Roff=100Meg Vfwd=370m Vrev=370m epsilon=20m revepsilon=20m noiseless)
.model DLIMI D(Ron=1 Roff=100Meg Vfwd=100m Vrev=100m epsilon=10m revepsilon=10m noiseless)
.model DESD D(Ron=100 Roff=1G Vfwd=.7 epsilon=.1 noiseless)
.model DEN D(Ron=1k Roff=100Meg Vfwd=.4 epsilon=.1 ilimit=12u noiseless)
.model DPOWS D(Ron=100 Roff=1G Vfwd=2 epsilon=.1 ilimit=800u noiseless)
.model SPOWR SW(level=1 Ron=10 Roff=1g vt=.5 vh=-.1 ilimit=74.7m noiseless)
.ends LTC6400-26
*
.subckt LTC6401-8 1 2 3 4 5 6 7 8 9 10
M1 N002 N013 6 6 NI temp=27
D5 N013 6 DLIMN
M2 N002 N005 3 3 PI temp=27
D8 3 N005 DLIMP
C3 3 N005 .01f Rser=100 noiseless
A3 N006 N008 6 6 6 6 N005 6 OTA g=200n ref=-55m linear vlow=-1e308 vhigh=1e308
A5 VLIM0 0 N006 N006 N006 N006 N008 N006 OTA g=3m iout=2.15m Vhigh=1e308 Vlow=-1e308
G1 6 N013 N008 N006 200n
D9 N008 N006 DLIM
C7 3 VINP 1p Rser=500 Rpar=2G noiseless
C13 3 6 1000p
S1 N008 N006 0 N010 SHUT2
C17 6 7 500f
S4 N005 3 0 N010 SHUT1
S2 6 N013 0 N010 SHUT1
A2 6 7 0 0 0 0 N010 0 SCHMITT trise=70n tfall=180n vt=-.8 vh=10m
D6 VINM 3 DESD
D7 6 VINM DESD
D11 6 VINP DESD
M3 N020 N028 6 6 NI temp=27
D3 N028 6 DLIMN
M4 N020 N024 3 3 PI temp=27
D12 3 N024 DLIMP
A6 N006 N025 6 6 6 6 N024 6 OTA g=200n ref=-55m linear vlow=-1e308 vhigh=1e308
A7 0 VLIM0 N006 N006 N006 N006 N025 N006 OTA g=3m iout=2.15m Vhigh=1e308 Vlow=-1e308
G5 6 N028 N025 N006 200n
D13 N025 N006 DLIM
S3 N025 N006 0 N010 SHUT2
S5 N024 3 0 N010 SHUT1
S6 6 N028 0 N010 SHUT1
R3 N002 N017 1Meg noiseless
R4 N020 N017 1Meg noiseless
G6 N006 N025 0 VCM 150µ
G7 N006 N008 0 VCM 150µ
C2 3 N002 .5p Rpar=1Meg noiseless
C8 N002 6 .5p Rpar=1Meg noiseless
C9 3 N020 .5p Rpar=1Meg noiseless
C11 N020 6 .5p Rpar=1Meg noiseless
C14 N008 N002 1.1p
C16 N020 N025 1.1p
D2 3 6 DPOWS
S7 6 3 N010 0 SPOWR
D1 Vocmf 3 DESD
D4 6 Vocmf DESD
D17 7 3 DESD
D18 6 7 DESD
C10 VLIM0 0 1p Rpar=70 noiseless
B1 0 N004 I=10u*dnlim(uplim(V(VINP),V(3)-1.3,.1), V(6)+.9, .1)+1n*V(VINP)
B2 N004 0 I=10u*dnlim(uplim(V(VINM),V(3)-1.29,.1), V(6)+.89, .1)+1n*V(VINM)
C20 N004 0 .1f Rpar=100K noiseless
G8 0 N006 6 0 .5m
G9 0 N006 3 0 .5m
C21 N006 0 200p Rpar=1K noiseless
R5 N002 10 50
C24 10 9 2.7p
D16 VINP 3 DESD
A4 0 N004 0 0 0 0 VLIM0 0 OTA g=100m linear en=.9n enk=12.2k Vhigh=1e308 Vlow=-1e308
R12 4 N002 12.5
R6 9 N020 50
R13 5 N020 12.5
R2 VINM 1 200
R8 VINP 8 200
R1 N002 VINM 500
R7 N020 VINP 500
R14 Vocmf 2 2k
C18 6 Vocmf 5.3p Rpar=300k noiseless
D19 7 6 DEN
B3 0 N023 I=10u*dnlim(uplim(V(Vocmf),V(3)-1.3,.1), V(6)+.9, .1)+1n*V(vocmf)
C27 N023 0 .1f Rpar=100K noiseless
G2 N023 0 N017 0 10µ
A8 0 N023 0 0 0 0 VCM 0 OTA g=1.7m iout=100u en=3n enk=12.2k ref=8.5m Vlow=-1e308 Vhigh=1e308
S10 3 N005 N002 3 SUPLIM
S11 3 N024 N020 3 SUPLIM
C1 3 VINM 1p Rser=500 Rpar=2G noiseless
C4 VINP 6 1p Rser=500 Rpar=2G noiseless
C5 VINM 6 1p Rser=500 Rpar=2G noiseless
C6 VCM 0 10f Rser=1k Rpar=10k noiseless
C12 N013 6 .01f Rser=100 noiseless
C15 3 N024 .01f Rser=100 noiseless
C19 N028 6 .01f Rser=100 noiseless
D10 VLIM0 N012 DLIMI
C22 N012 0 2p Rpar=100k noiseless
.model SHUT1 SW(Ron=100k Roff=100G vt=-.8 vh=-100m Vser=300m noiseless)
.model SHUT2 SW(Ron=1k Roff=100G vt=-.8 vh=-100m noiseless)
.model SUPLIM SW(Ron=100k Roff=1G vt=-500m vh=-120m noiseless)
.model NI VDMOS(Vto=300m kp=200m lambda=.1)
.model PI VDMOS(Vto=-300m Kp=200m lambda=.1 pchan)
.model DLIMN D(Ron=100k Roff=100Meg Vfwd=.7 Vrev=-300m epsilon=10m  noiseless)
.model DLIMP D(Ron=100k Roff=100Meg Vfwd=.7 Vrev=-300m  epsilon=10m revepsilon=10m noiseless)
.model DCML D(Ron=10 Roff=10k Vfwd=500m epsilon=10m Vrev=500m revepsilon=10m noiseless)
.model DLIM D(Ron=100 Roff=7k Vfwd=3 Vrev=3 epsilon=50m revepsilon=50m noiseless)
.model DSI D(IS=1e-20 TT=1p noiseless)
.model DLIM0 D(Ron=1 Roff=10Meg Vfwd=1.05 Vrev=1.05 epsilon=50m revepsilon=50m noiseless)
.model DLIMI D(Ron=1 Roff=100Meg Vfwd=120m Vrev=120m epsilon=10m revepsilon=10m noiseless)
.model DESD D(Ron=100 Roff=1G Vfwd=.7 epsilon=.1 noiseless)
.model DEN D(Ron=1k Roff=100Meg Vfwd=.4 epsilon=.1 ilimit=12u noiseless)
.model DPOWS D(Ron=100 Roff=1G Vfwd=2 epsilon=.1 ilimit=.8m noiseless)
.model SPOWR SW(level=1 Ron=10 Roff=1g vt=.5 vh=-.1 ilimit=32.7m noiseless)
.ends LTC6401-8
*
.subckt LTC6401-14 1 2 3 4 5 6 7 8 9 10
M1 N002 N014 6 6 NI temp=27
D5 N014 6 DLIMN
M2 N002 N006 3 3 PI temp=27
D8 3 N006 DLIMP
C3 3 N006 .01f Rser=100 noiseless
A3 N007 N009 6 6 6 6 N006 6 OTA g=200n ref=-55m linear vlow=-1e308 vhigh=1e308
A5 N005 0 N007 N007 N007 N007 N009 N007 OTA g=3m linear cout=1f Vhigh=1e308 Vlow=-1e308
G1 6 N014 N009 N007 200n
D9 N009 N007 DLIM
C7 3 VINP 1p Rser=500 Rpar=2G noiseless
C13 3 6 1000p
S1 N009 N007 0 N011 SHUT2
C17 6 7 500f
S4 N006 3 0 N011 SHUT1
S2 6 N014 0 N011 SHUT1
A2 6 7 0 0 0 0 N011 0 SCHMITT trise=70n tfall=180n vt=-.8 vh=10m
D6 VINM 3 DESD
D7 6 VINM DESD
D11 6 VINP DESD
M3 N021 N029 6 6 NI temp=27
D3 N029 6 DLIMN
M4 N021 N025 3 3 PI temp=27
D12 3 N025 DLIMP
A6 N007 N026 6 6 6 6 N025 6 OTA g=200n ref=-55m linear vlow=-1e308 vhigh=1e308
A7 0 N005 N007 N007 N007 N007 N026 N007 OTA g=3m linear cout=1f Vhigh=1e308 Vlow=-1e308
G5 6 N029 N026 N007 200n
D13 N026 N007 DLIM
S3 N026 N007 0 N011 SHUT2
S5 N025 3 0 N011 SHUT1
S6 6 N029 0 N011 SHUT1
R3 N002 N018 1Meg noiseless
R4 N021 N018 1Meg noiseless
G6 N007 N026 0 VCM 150µ
G7 N007 N009 0 VCM 150µ