Version 4
SHEET 1 1852 3652
WIRE -4864 -1776 -4880 -1776
WIRE -4768 -1776 -4800 -1776
WIRE -4752 -1776 -4768 -1776
WIRE -4656 -1776 -4672 -1776
WIRE -4880 -1712 -4880 -1776
WIRE -4768 -1696 -4768 -1776
WIRE -4656 -1696 -4768 -1696
WIRE -4880 -1616 -4880 -1632
WIRE -4864 -1488 -4880 -1488
WIRE -4816 -1488 -4864 -1488
WIRE -4880 -1472 -4880 -1488
WIRE -5184 -1424 -5216 -1424
WIRE -5168 -1424 -5184 -1424
WIRE -5008 -1424 -5024 -1424
WIRE -5184 -1392 -5216 -1392
WIRE -5168 -1392 -5184 -1392
WIRE -5008 -1392 -5024 -1392
WIRE -4880 -1376 -4880 -1392
WIRE -5184 -1344 -5216 -1344
WIRE -5168 -1344 -5184 -1344
WIRE -5184 -1312 -5216 -1312
WIRE -5168 -1312 -5184 -1312
WIRE -5168 -1008 -5200 -1008
WIRE -5168 -960 -5200 -960
WIRE -3584 -960 -3616 -960
WIRE -3504 -960 -3520 -960
WIRE -3584 -928 -3616 -928
WIRE -3504 -928 -3504 -960
WIRE -3504 -928 -3520 -928
WIRE -2384 -912 -2384 -928
WIRE -3584 -896 -3616 -896
WIRE -3504 -896 -3504 -928
WIRE -3504 -896 -3520 -896
WIRE -3488 -896 -3504 -896
WIRE -3392 -896 -3408 -896
WIRE -3360 -896 -3392 -896
WIRE -3264 -896 -3280 -896
WIRE -2304 -896 -2304 -928
WIRE -2384 -880 -2384 -912
WIRE -3584 -864 -3616 -864
WIRE -3504 -864 -3504 -896
WIRE -3504 -864 -3520 -864
WIRE -3024 -848 -3040 -848
WIRE -2032 -848 -2032 -864
WIRE -3584 -832 -3600 -832
WIRE -3504 -832 -3504 -864
WIRE -3504 -832 -3520 -832
WIRE -3328 -832 -3344 -832
WIRE -3024 -832 -3024 -848
WIRE -3392 -816 -3392 -896
WIRE -3360 -816 -3392 -816
WIRE -3264 -800 -3296 -800
WIRE -2032 -800 -2032 -848
WIRE -2032 -800 -2192 -800
WIRE -3360 -784 -3392 -784
WIRE -3040 -784 -3072 -784
WIRE -3328 -768 -3344 -768
WIRE -2032 -768 -2032 -800
WIRE -2832 -752 -2880 -752
WIRE -2752 -752 -2768 -752
WIRE -2384 -752 -2384 -800
WIRE -2304 -752 -2304 -832
WIRE -2304 -752 -2384 -752
WIRE -2288 -752 -2304 -752
WIRE -2256 -752 -2288 -752
WIRE -2384 -736 -2384 -752
WIRE -5392 -720 -5568 -720
WIRE -5296 -720 -5392 -720
WIRE -5184 -720 -5216 -720
WIRE -5120 -720 -5184 -720
WIRE -4784 -720 -4816 -720
WIRE -4688 -720 -4704 -720
WIRE -3584 -720 -3616 -720
WIRE -3504 -720 -3520 -720
WIRE -3488 -720 -3504 -720
WIRE -3392 -720 -3392 -784
WIRE -3392 -720 -3408 -720
WIRE -3376 -720 -3392 -720
WIRE -3264 -720 -3264 -800
WIRE -3264 -720 -3296 -720
WIRE -3248 -720 -3264 -720
WIRE -3152 -720 -3168 -720
WIRE -3072 -720 -3152 -720
WIRE -3040 -720 -3072 -720
WIRE -5184 -704 -5184 -720
WIRE -5024 -704 -5056 -704
WIRE -4960 -704 -5024 -704
WIRE -3152 -704 -3152 -720
WIRE -5568 -688 -5568 -720
WIRE -5120 -688 -5136 -688
WIRE -4208 -688 -4240 -688
WIRE -4096 -688 -4144 -688
WIRE -3584 -688 -3600 -688
WIRE -3504 -688 -3504 -720
WIRE -3504 -688 -3520 -688
WIRE -2192 -688 -2192 -704
WIRE -2128 -688 -2192 -688
WIRE -2080 -688 -2128 -688
WIRE -2128 -672 -2128 -688
WIRE -3024 -656 -3024 -672
WIRE -3024 -656 -3040 -656
WIRE -2192 -656 -2192 -688
WIRE -5136 -640 -5136 -688
WIRE -5024 -640 -5024 -704
WIRE -5024 -640 -5136 -640
WIRE -4560 -640 -4560 -656
WIRE -2384 -640 -2384 -656
WIRE -2384 -640 -2400 -640
WIRE -4960 -624 -4960 -640
WIRE -4864 -624 -4960 -624
WIRE -4784 -624 -4864 -624
WIRE -4688 -624 -4688 -720
WIRE -4688 -624 -4704 -624
WIRE -4592 -624 -4688 -624
WIRE -3152 -624 -3152 -640
WIRE -4960 -608 -4960 -624
WIRE -4496 -608 -4528 -608
WIRE -4368 -608 -4496 -608
WIRE -4336 -608 -4368 -608
WIRE -4240 -608 -4240 -688
WIRE -4240 -608 -4256 -608
WIRE -4208 -608 -4240 -608
WIRE -4096 -608 -4096 -688
WIRE -4096 -608 -4128 -608
WIRE -3072 -608 -3072 -720
WIRE -3008 -608 -3072 -608
WIRE -2864 -608 -2928 -608
WIRE -2832 -608 -2864 -608
WIRE -2752 -608 -2768 -608
WIRE -2384 -608 -2384 -640
WIRE -5568 -592 -5568 -608
WIRE -4688 -592 -4688 -624
WIRE -4592 -592 -4624 -592
WIRE -4496 -592 -4496 -608
WIRE -4560 -560 -4560 -576
WIRE -2192 -560 -2192 -592
WIRE -2128 -560 -2128 -592
WIRE -2128 -560 -2192 -560
WIRE -2064 -560 -2128 -560
WIRE -2032 -560 -2032 -672
WIRE -2032 -560 -2064 -560
WIRE -5024 -544 -5136 -544
WIRE -4960 -544 -5024 -544
WIRE -3072 -544 -3072 -608
WIRE -2992 -544 -3072 -544
WIRE -2864 -544 -2864 -608
WIRE -2864 -544 -2928 -544
WIRE -2032 -544 -2032 -560
WIRE -5168 -528 -5168 -544
WIRE -4240 -512 -4240 -608
WIRE -4192 -512 -4240 -512
WIRE -5168 -496 -5168 -528
WIRE -4688 -496 -4688 -512
WIRE -4624 -496 -4624 -592
WIRE -4496 -496 -4496 -512
WIRE -4496 -496 -4624 -496
WIRE -4096 -496 -4096 -608
WIRE -4096 -496 -4128 -496
WIRE -4048 -496 -4096 -496
WIRE -5136 -480 -5136 -544
WIRE -5104 -480 -5136 -480
WIRE -4496 -480 -4496 -496
WIRE -4336 -480 -4368 -480
WIRE -4240 -480 -4256 -480
WIRE -4192 -480 -4240 -480
WIRE -2384 -480 -2384 -544
WIRE -2384 -480 -2496 -480
WIRE -5024 -464 -5024 -544
WIRE -5024 -464 -5040 -464
WIRE -4240 -464 -4240 -480
WIRE -5104 -448 -5136 -448
WIRE -2032 -432 -2032 -464
WIRE -2032 -432 -2496 -432
WIRE -1968 -432 -2032 -432
WIRE -1888 -432 -1968 -432
WIRE -1792 -432 -1824 -432
WIRE -1648 -432 -1792 -432
WIRE -2032 -400 -2032 -432
WIRE -5168 -384 -5168 -400
WIRE -3456 -336 -3536 -336
WIRE -3312 -336 -3392 -336
WIRE -2384 -320 -2384 -480
WIRE -1792 -320 -1792 -432
WIRE -3056 -304 -3120 -304
WIRE -2864 -304 -2992 -304
WIRE -1648 -304 -1648 -432
WIRE -2128 -288 -2192 -288
WIRE -2080 -288 -2128 -288
WIRE -2032 -288 -2032 -320
WIRE -2032 -288 -2080 -288
WIRE -4368 -256 -4368 -480
WIRE -4368 -256 -4640 -256
WIRE -3536 -256 -3536 -336
WIRE -3408 -256 -3536 -256
WIRE -3312 -256 -3312 -336
WIRE -3312 -256 -3328 -256
WIRE -3280 -256 -3312 -256
WIRE -2128 -256 -2128 -288
WIRE -2192 -240 -2192 -288
WIRE -3120 -224 -3120 -304
WIRE -2992 -224 -3120 -224
WIRE -2864 -224 -2864 -304
WIRE -2864 -224 -2912 -224
WIRE -2848 -224 -2864 -224
WIRE -2752 -224 -2752 -304
WIRE -2752 -224 -2768 -224
WIRE -2384 -224 -2384 -256
WIRE -2384 -224 -2400 -224
WIRE -3392 -208 -3408 -208
WIRE -2384 -208 -2384 -224
WIRE -1792 -208 -1792 -240
WIRE -1648 -208 -1648 -224
WIRE -3392 -192 -3392 -208
WIRE -2976 -176 -2992 -176
WIRE -2752 -176 -2752 -224
WIRE -2032 -176 -2032 -288
WIRE -2976 -160 -2976 -176
WIRE -2192 -160 -2192 -176
WIRE -2160 -160 -2192 -160
WIRE -2128 -160 -2128 -176
WIRE -2128 -160 -2160 -160
WIRE -2080 -160 -2128 -160
WIRE -3312 -144 -3312 -256
WIRE -3312 -144 -3360 -144
WIRE -2192 -144 -2192 -160
WIRE -1648 -128 -1648 -144
WIRE -3680 -112 -3712 -112
WIRE -3536 -112 -3536 -256
WIRE -3536 -112 -3616 -112
WIRE -3504 -112 -3536 -112
WIRE -2864 -112 -2864 -224
WIRE -2864 -112 -2944 -112
WIRE -2384 -96 -2384 -128
WIRE -2304 -96 -2384 -96
WIRE -2288 -96 -2304 -96
WIRE -2256 -96 -2288 -96
WIRE -3248 -80 -3360 -80
WIRE -3216 -80 -3248 -80
WIRE -3120 -80 -3120 -224
WIRE -3120 -80 -3136 -80
WIRE -3088 -80 -3120 -80
WIRE -2384 -64 -2384 -96
WIRE -2752 -48 -2752 -96
WIRE -2752 -48 -2944 -48
WIRE -2304 -48 -2304 -96
WIRE -2032 -48 -2032 -80
WIRE -2032 -48 -2192 -48
WIRE -1792 -48 -1792 -128
WIRE -3440 -16 -3440 -32
WIRE -3248 -16 -3248 -80
WIRE -5088 0 -5184 0
WIRE -4912 0 -5024 0
WIRE -4672 0 -4768 0
WIRE -4496 0 -4608 0
WIRE -3392 0 -3392 -32
WIRE -2752 0 -2752 -48
WIRE -2032 0 -2032 -48
WIRE -3024 16 -3024 0
WIRE -2032 16 -2032 0
WIRE -4432 32 -4464 32
WIRE -4384 32 -4432 32
WIRE -4288 32 -4320 32
WIRE -2976 32 -2976 0
WIRE -2384 48 -2384 16
WIRE -2304 48 -2304 16
WIRE -5360 64 -5520 64
WIRE -5280 64 -5360 64
WIRE -5184 64 -5184 0
WIRE -5184 64 -5200 64
WIRE -5168 64 -5184 64
WIRE -5072 64 -5088 64
WIRE -5008 64 -5072 64
WIRE -5520 80 -5520 64
WIRE -4912 80 -4912 0
WIRE -4912 80 -4944 80
WIRE -4864 80 -4912 80
WIRE -4768 80 -4768 0
WIRE -4768 80 -4784 80
WIRE -4752 80 -4768 80
WIRE -4656 80 -4672 80
WIRE -4592 80 -4656 80
WIRE -3248 80 -3248 48
WIRE -5072 96 -5072 64
WIRE -5008 96 -5024 96
WIRE -4496 96 -4496 0
WIRE -4496 96 -4528 96
WIRE -4432 96 -4496 96
WIRE -4384 96 -4432 96
WIRE -4288 96 -4288 32
WIRE -4288 96 -4320 96
WIRE -4176 96 -4288 96
WIRE -4656 112 -4656 80
WIRE -4592 112 -4608 112
WIRE -5024 144 -5024 96
WIRE -4912 144 -4912 80
WIRE -4912 144 -5024 144
WIRE -4608 160 -4608 112
WIRE -4496 160 -4496 96
WIRE -4496 160 -4608 160
WIRE -4432 160 -4464 160
WIRE -4384 160 -4432 160
WIRE -4288 160 -4288 96
WIRE -4288 160 -4320 160
WIRE -5520 176 -5520 160
WIRE -5072 176 -5072 160
WIRE -4656 192 -4656 176
WIRE -2432 464 -2576 464
WIRE -4560 480 -4576 480
WIRE -4432 480 -4480 480
WIRE -4400 480 -4432 480
WIRE -2048 480 -2192 480
WIRE -3264 496 -3344 496
WIRE -3344 512 -3344 496
WIRE -2432 528 -2432 464
WIRE -2432 528 -2464 528
WIRE -2576 544 -2576 464
WIRE -2576 544 -2624 544
WIRE -2528 544 -2576 544
WIRE -2048 544 -2048 480
WIRE -2048 544 -2080 544
WIRE -2448 560 -2464 560
WIRE -2432 560 -2448 560
WIRE -2336 560 -2352 560
WIRE -2320 560 -2336 560
WIRE -2192 560 -2192 480
WIRE -2192 560 -2240 560
WIRE -2144 560 -2192 560
WIRE -3344 576 -3344 512
WIRE -2064 576 -2080 576
WIRE -2048 576 -2064 576
WIRE -1952 576 -1968 576
WIRE -1936 576 -1952 576
WIRE -1792 576 -1856 576
WIRE -1728 576 -1792 576
WIRE -2448 592 -2448 560
WIRE -2064 608 -2064 576
WIRE -4752 656 -4784 656
WIRE -1728 656 -1728 576
WIRE -3408 672 -3408 656
WIRE -4752 688 -4784 688
WIRE -3344 688 -3344 656
WIRE -3344 688 -3376 688
WIRE -3296 688 -3344 688
WIRE -3104 688 -3216 688
WIRE -3584 704 -3616 704
WIRE -3488 704 -3584 704
WIRE -3440 704 -3488 704
WIRE -2576 704 -2576 544
WIRE -2528 704 -2576 704
WIRE -2336 704 -2336 560
WIRE -2336 704 -2464 704
WIRE -4752 720 -4784 720
WIRE -4256 720 -4256 704
WIRE -3344 720 -3376 720
WIRE -2192 720 -2192 560
WIRE -2144 720 -2192 720
WIRE -1952 720 -1952 576
WIRE -1952 720 -2080 720
WIRE -5056 752 -5056 736
WIRE -4944 752 -4944 736
WIRE -4608 752 -4656 752
WIRE -4496 752 -4544 752
WIRE -4480 752 -4496 752
WIRE -1728 752 -1728 736
WIRE -4256 800 -4256 784
WIRE -4240 800 -4256 800
WIRE -4144 800 -4160 800
WIRE -4752 816 -4784 816
WIRE -4656 816 -4656 752
WIRE -4656 816 -4672 816
WIRE -4608 816 -4656 816
WIRE -4512 816 -4544 816
WIRE -3488 816 -3488 704
WIRE -3456 816 -3488 816
WIRE -3344 816 -3344 720
WIRE -3344 816 -3376 816
WIRE -3296 816 -3344 816
WIRE -3136 816 -3216 816
WIRE -5136 832 -5168 832
WIRE -5056 832 -5056 816
WIRE -5056 832 -5136 832
WIRE -4944 832 -4944 816
WIRE -4944 832 -5056 832
WIRE -3136 832 -3136 816
WIRE -4256 848 -4256 800
WIRE -5056 864 -5056 832
WIRE -4944 864 -4944 832
WIRE -4784 864 -4784 816
WIRE -4656 896 -4656 816
WIRE -4608 896 -4656 896
WIRE -4432 896 -4544 896
WIRE -4368 896 -4432 896
WIRE -5232 928 -5248 928
WIRE -5152 928 -5168 928
WIRE -5136 928 -5152 928
WIRE -4432 992 -4432 976
WIRE -4368 992 -4368 960
WIRE -4368 992 -4432 992
WIRE -4432 1008 -4432 992
WIRE -5232 1024 -5248 1024
WIRE -5152 1024 -5152 928
WIRE -5152 1024 -5168 1024
WIRE -5136 1024 -5152 1024
WIRE -4256 1056 -4256 1008
WIRE -5056 1088 -5152 1088
WIRE -4944 1088 -4944 1056
WIRE -4432 1104 -4432 1088
WIRE -5600 1152 -5664 1152
WIRE -5584 1152 -5600 1152
WIRE -5504 1152 -5520 1152
WIRE -5264 1152 -5504 1152
WIRE -4992 1152 -5264 1152
WIRE -4976 1152 -4992 1152
WIRE -4880 1152 -4880 1088
WIRE -4880 1152 -4896 1152
WIRE -4864 1152 -4880 1152
WIRE -4784 1152 -4784 1088
WIRE -4768 1152 -4784 1152
WIRE -4656 1152 -4688 1152
WIRE -4624 1152 -4656 1152
WIRE -5600 1168 -5600 1152
WIRE -4992 1168 -4992 1152
WIRE -4992 1248 -4992 1232
WIRE -5600 1264 -5600 1232
FLAG -1648 -128 0
FLAG -5184 -1392 V2-
FLAG -5184 -1424 V2+
FLAG -3616 -896 stimac
FLAG -3616 -928 stimOffs
FLAG -3600 -832 0
FLAG -3328 -832 V2-
FLAG -3328 -768 V2+
FLAG -3264 -896 0
FLAG -3616 -720 IsensA
FLAG -3264 -800 sumB
FLAG -3024 -656 V+
FLAG -3024 -848 V-
FLAG -3072 -784 0
FLAG -2032 0 V-
FLAG -2032 -848 V+
FLAG -2128 -688 b_hi
FLAG -2064 -560 e_hi
FLAG -2080 -288 e_lo
FLAG -2160 -160 b_lo
FLAG -2752 -608 ucoil
IOPIN -2752 -608 In
FLAG -2752 -752 opV
IOPIN -2752 -752 Out
FLAG -2976 -832 0
FLAG -4656 -1776 stimOffs
FLAG -3600 -688 0
FLAG -4880 -1376 0
FLAG -4864 -1488 calcSum
FLAG -3616 -960 stimpwl
FLAG -4880 -1616 0
FLAG -4656 -1696 stimac
FLAG -5184 -1312 V-
FLAG -5184 -1344 V+
FLAG -2288 -752 HS
FLAG -2288 -96 LS
FLAG -2752 0 0
FLAG -2752 -304 shunt
IOPIN -2752 -304 In
FLAG -3248 80 0
FLAG -3200 -256 0
FLAG -3712 -112 Isensa
FLAG -3152 -624 0
FLAG -2496 -432 Ucoil
IOPIN -2496 -432 Out
FLAG -2400 -224 bias_lo1
FLAG -2384 -96 bias_lo2
FLAG -2384 -752 bias_hi1
FLAG -2400 -640 bias_hi2
FLAG -2496 -480 opV
IOPIN -2496 -480 In
FLAG -2384 -912 V+
FLAG -2384 48 V-
FLAG -5008 -1424 Vp
FLAG -5008 -1392 Vm
FLAG -5520 176 0
FLAG -4160 -528 Vp
FLAG -4160 -464 Vm
FLAG -4240 -384 0
FLAG -4048 -496 pwrCtrlx
IOPIN -4048 -496 Out
FLAG -4368 -480 ue2
FLAG -4560 -560 Vp
FLAG -4560 -656 Vm
FLAG -4496 -400 0
FLAG -4688 -496 0
FLAG -5568 -592 0
FLAG -5168 -960 Aref_2
FLAG -4368 -608 ue1
FLAG -5072 -496 Vp
FLAG -5072 -432 Vm
FLAG -5168 -528 Vp
FLAG -4576 480 0
FLAG -4432 480 inp_vcalc
FLAG -4944 1056 0
FLAG -5248 928 0
FLAG -5248 1024 0
FLAG -4992 1248 0
FLAG -4944 736 0
FLAG -5056 736 0
FLAG -1728 752 0
FLAG -2448 656 0
FLAG -2624 544 sallen
FLAG -2064 672 0
FLAG -2112 528 Vp
FLAG -3408 736 Vp
FLAG -3344 512 Vbias
FLAG -3136 832 0
FLAG -3584 704 Ys2
FLAG -3408 656 Vm
FLAG -3264 496 0
FLAG -3104 688 0
FLAG -2496 512 Vp
FLAG -2112 592 Vm
FLAG -2496 576 Vm
FLAG -4752 720 cRg
FLAG -4752 656 cRf
FLAG -4752 688 cRb
FLAG -5136 832 +5V
FLAG -5152 1088 +5V
FLAG -4256 1056 0
FLAG -4432 1104 0
FLAG -4256 704 0
FLAG -4656 1152 posRaw
FLAG -4496 752 refSrc
FLAG -4976 112 Vp
FLAG -4976 48 Vm
FLAG -5072 176 0
FLAG -4560 128 Vp
FLAG -4560 64 Vm
FLAG -4656 192 0
FLAG -5360 64 DACx
FLAG -4432 32 DACx
FLAG -4912 0 DACxf1
FLAG -4432 96 DACxf2
FLAG -4432 160 DACxf1
FLAG -4640 -256 I_ctrl
IOPIN -4640 -256 In
FLAG -4176 96 I_ctrl
IOPIN -4176 96 Out
FLAG -5168 -384 0
FLAG -5088 -672 Vp
FLAG -5088 -736 Vm
FLAG -5184 -640 0
FLAG -5392 -720 LTDACa
FLAG -4864 -624 LTDAC_off
FLAG -5168 -1008 Aref
FLAG -1792 -48 shunt
IOPIN -1792 -48 Out
FLAG -5600 1264 0
FLAG -5664 1152 ADC_quant
IOPIN -5664 1152 Out
FLAG -5264 1152 posX_ADC
FLAG -1792 576 posDemod
FLAG -1968 -432 Ucoil
FLAG -3616 -864 pwrCtrlx
IOPIN -3616 -864 In
FLAG -2304 -928 0
FLAG -2304 48 0
FLAG -4816 -720 Aref
DATAFLAG -2320 -480 "I(D7)"
DATAFLAG -2320 -384 "I(D11)"
SYMBOL res -1808 -224 R0
SYMATTR InstName R1
SYMATTR Value 3.5
SYMBOL ind -1808 -336 R0
SYMATTR InstName L1
SYMATTR Value {Lcoil}
SYMBOL res -1664 -320 R0
SYMATTR InstName R2
SYMATTR Value 1t
SYMBOL cap -1664 -208 R0
SYMATTR InstName C1
SYMATTR Value 100n
SYMBOL Misc\\jumper -1856 -496 R0
SYMATTR InstName X1
SYMBOL source-Vmarker -5216 -1424 R0
SYMATTR Value V=12
SYMATTR InstName U1
SYMBOL source-Vmarker -5216 -1392 R0
SYMATTR Value V=-12V
SYMATTR InstName U2
SYMBOL Misc\\jumper -3552 -928 R0
SYMATTR InstName X2
SYMBOL res -3504 -912 M90
WINDOW 0 7 56 VBottom 2
WINDOW 3 25 56 VTop 2
SYMATTR InstName R4
SYMATTR Value 3k3
SYMBOL Opamps\\LTC6090 -2976 -752 M180
WINDOW 0 63 -48 Left 2
SYMATTR InstName U3
SYMBOL res -3264 -736 M90
WINDOW 0 7 56 VBottom 2
WINDOW 3 25 56 VTop 2
SYMATTR InstName R7
SYMATTR Value 5k1
SYMBOL EIT_Semiconductors\\npn -2256 -800 R0
SYMATTR InstName T1
SYMATTR Value FMMT624
SYMBOL EIT_Semiconductors\\pnp -2256 -48 M180
SYMATTR InstName T2
SYMATTR Value FMMT723
SYMBOL res -2112 -688 M0
WINDOW 3 67 149 Right 2
SYMATTR Value {bias_be1}
SYMATTR InstName R8
SYMBOL res -2144 -272 R0
WINDOW 3 -32 -42 Left 2
SYMATTR Value {bias_be1}
SYMATTR InstName R9
SYMBOL res -2048 -560 R0
SYMATTR InstName R10
SYMATTR Value .015
SYMBOL res -2048 -304 M180
WINDOW 0 36 76 Left 2
WINDOW 3 36 40 Left 2
SYMATTR InstName R11
SYMATTR Value .015
SYMBOL cap -2176 -656 M0
SYMATTR InstName C3
SYMATTR Value 10f
SYMBOL Misc\\jumper -2800 -816 R0
SYMATTR InstName X3
SYMBOL Misc\\jumper -2800 -672 R0
SYMATTR InstName X4
SYMBOL source-V -4656 -1776 M270
WINDOW 0 -27 56 VBottom 2
WINDOW 3 -28 -144 VBottom 2
WINDOW 123 0 0 Left 2
WINDOW 39 0 0 Left 2
SYMATTR InstName V2
SYMATTR Value PULSE({Vstim_peak} 0 0 100u)
SYMBOL Misc\\jumper -3552 -784 R0
SYMATTR InstName X5
SYMBOL cap -2992 -528 R270
WINDOW 0 21 67 VTop 2
WINDOW 3 12 65 VBottom 2
SYMATTR InstName C4
SYMATTR Value {Cf}
SYMBOL bv -4880 -1488 R0
WINDOW 3 49 50 Left 2
WINDOW 0 47 27 Left 2
SYMATTR Value V=V(stimoffs)-V(isensa)
SYMATTR InstName B1
SYMBOL source-V -4880 -1728 R0
WINDOW 3 43 95 Left 2
WINDOW 123 43 67 Left 2
WINDOW 39 0 0 Left 2
WINDOW 0 46 46 Left 2
SYMATTR Value SINE(20m 1 100 20m)
SYMATTR Value2 AC 1
SYMATTR InstName V4
SYMBOL source-Vmarker -5216 -1344 R0
SYMATTR Value V={Vsup}
SYMATTR InstName U6
SYMBOL source-Vmarker -5216 -1312 R0
SYMATTR Value V={-Vsup}
SYMATTR InstName U7
SYMBOL MDB_sym\\jumperRes -4832 -1840 R0
WINDOW 0 1 88 Bottom 2
SYMATTR InstName U8
SYMBOL res -2768 -192 R0
SYMATTR InstName Rsh
SYMATTR Value 0.015
SYMBOL Opamps\\LTC2050 -2976 -80 M0
SYMATTR InstName U9
SYMBOL source-Vmarker -2992 -176 R0
SYMATTR InstName U10
SYMBOL source-Vmarker -2976 32 R180
SYMATTR Value V=-5V
SYMATTR InstName U11
SYMBOL res -3008 -208 R270
WINDOW 0 32 56 VTop 2
WINDOW 3 0 56 VBottom 2
SYMATTR InstName R24
SYMATTR Value 270
SYMBOL res -2864 -208 R270
WINDOW 0 32 56 VTop 2
WINDOW 3 0 56 VBottom 2
SYMATTR InstName R25
SYMATTR Value 27
SYMBOL cap -3056 -288 R270
WINDOW 0 32 32 VTop 2
WINDOW 3 0 32 VBottom 2
SYMATTR InstName C5
SYMATTR Value 10p
SYMBOL source-Vmarker -3024 16 R0
SYMATTR InstName U12
SYMBOL Opamps\\LTC2050 -3392 -112 M0
SYMATTR InstName U13
SYMBOL source-Vmarker -3408 -208 R0
SYMATTR InstName U14
SYMBOL source-Vmarker -3392 0 R180
SYMATTR Value V=-5V
SYMATTR InstName U15
SYMBOL res -3424 -240 R270
WINDOW 0 32 56 VTop 2
WINDOW 3 0 56 VBottom 2
SYMATTR InstName R26
SYMATTR Value 180
SYMBOL res -3232 -64 R270
WINDOW 0 32 56 VTop 2
WINDOW 3 0 56 VBottom 2
SYMATTR InstName R27
SYMATTR Value 1k
SYMBOL source-Vmarker -3440 -16 R0
SYMATTR InstName U16
SYMBOL res -3296 -240 R270
WINDOW 0 32 56 VTop 2
WINDOW 3 0 56 VBottom 2
SYMATTR InstName R28
SYMATTR Value 20
SYMBOL Misc\\jumper -3648 -176 M0
SYMATTR InstName X10
SYMBOL cap -3264 -16 R0
SYMATTR InstName C6
SYMATTR Value {1/(2*pi*1k*100k)}
SYMBOL res -3024 -624 M90
WINDOW 0 7 56 VBottom 2
WINDOW 3 25 56 VTop 2
SYMATTR InstName R29
SYMATTR Value {5k1*Kp}
SYMBOL Opamps\\LT1468 -3328 -736 M180
WINDOW 0 -20 64 Left 2
WINDOW 3 -115 65 Left 2
SYMATTR InstName U17
SYMBOL cap -3168 -704 R0
SYMATTR InstName C7
SYMATTR Value {Ctp}
SYMBOL res -2400 -752 R0
SYMATTR InstName R30
SYMATTR Value {bias_b1}
SYMBOL res -2400 -224 R0
SYMATTR InstName R31
SYMATTR Value {bias_b1}
SYMBOL source-I -2384 16 R180
WINDOW 0 59 61 Left 2
WINDOW 3 47 37 Left 2
WINDOW 123 0 0 Left 2
WINDOW 39 35 11 Left 2
SYMATTR InstName I6
SYMATTR Value {Iq}
SYMATTR SpiceLine load
SYMBOL diode -2400 -608 R0
WINDOW 3 108 32 Right 2
SYMATTR Value 1N4148
SYMATTR InstName D11
SYMBOL diode -2400 -320 R0
WINDOW 3 113 32 Right 2
SYMATTR Value 1N4148
SYMATTR InstName D12
SYMBOL source-V -5520 64 M0
WINDOW 123 28 52 Left 2
WINDOW 39 0 0 Left 2
SYMATTR Value2 AC 1
SYMATTR InstName V6
SYMATTR Value SINE({Aref/2} 1.2 500 0)
SYMBOL res -4352 -592 R270
WINDOW 0 25 56 VTop 2
WINDOW 3 7 56 VBottom 2
SYMATTR InstName R32
SYMATTR Value {R1}
SYMBOL res -4352 -464 R270
WINDOW 0 25 56 VTop 2
WINDOW 3 7 56 VBottom 2
SYMATTR InstName R33
SYMATTR Value {R3}
SYMBOL res -4256 -480 R0
SYMATTR InstName R34
SYMATTR Value {R4}
SYMBOL res -4224 -592 R270
WINDOW 0 25 56 VTop 2
WINDOW 3 7 56 VBottom 2
SYMATTR InstName R35
SYMATTR Value {R2}
SYMBOL res -4512 -608 R0
SYMATTR InstName R36
SYMATTR Value 22k
SYMBOL res -4512 -496 R0
SYMATTR InstName R37
SYMATTR Value 22k
SYMBOL source-V -5568 -704 M0
WINDOW 123 0 0 Left 2
WINDOW 39 0 0 Left 2
SYMATTR InstName V7
SYMATTR Value PULSE(0 3 10m 20m)
SYMBOL Misc\\jumper -4896 -672 R90
SYMATTR InstName X14
SYMBOL res -4800 -736 M90
WINDOW 0 0 56 VBottom 2
WINDOW 3 32 56 VTop 2
SYMATTR InstName R41
SYMATTR Value {R4b}
SYMBOL res -4800 -640 M90
WINDOW 0 0 56 VBottom 2
WINDOW 3 32 56 VTop 2
SYMATTR InstName R42
SYMATTR Value {R9}
SYMBOL res -4672 -608 M0
WINDOW 3 33 72 Left 2
WINDOW 0 35 48 Left 2
SYMATTR Value {R10}
SYMATTR InstName R43
SYMBOL source-Vmarker -5024 -1392 R0
SYMATTR Value V={-Vsup}
SYMATTR InstName U22
SYMBOL source-Vmarker -5024 -1424 R0
SYMATTR Value V={Vsup}
SYMATTR InstName U23
SYMBOL source-Vmarker -5200 -960 R0
WINDOW 3 -14 0 Right 2
SYMATTR Value V={Aref/2}
SYMATTR InstName U24
SYMBOL bv -4464 480 R90
WINDOW 0 -27 56 VBottom 2
WINDOW 3 31 -9 VTop 2
SYMATTR InstName B2
SYMATTR Value V=1
SYMBOL Opamps\\LTC6360 -4944 976 M0
SYMATTR InstName U25
SYMBOL cap -5232 1008 M90
WINDOW 0 0 32 VBottom 2
WINDOW 3 32 32 VTop 2
SYMATTR InstName C8
SYMATTR Value 10µ
SYMBOL cap -5168 944 M270
WINDOW 0 32 32 VTop 2
WINDOW 3 0 32 VBottom 2
SYMATTR InstName C9
SYMATTR Value .1µ
SYMBOL res -4880 1168 M270
WINDOW 0 32 56 VTop 2
WINDOW 3 0 56 VBottom 2
SYMATTR InstName R45
SYMATTR Value 10
SYMBOL cap -4976 1168 M0
SYMATTR InstName C10
SYMATTR Value 330p
SYMBOL cap -5040 752 M0
SYMATTR InstName C11
SYMATTR Value 0.1µ
SYMBOL cap -4928 752 M0
SYMATTR InstName C12
SYMATTR Value 1µ
SYMBOL voltage -1728 640 M0
WINDOW 123 24 124 Left 2
WINDOW 39 24 117 Left 2
WINDOW 3 -60 158 Left 2
SYMATTR Value2 AC 1
SYMATTR Value SINE(0 1 {fsig})
SYMATTR InstName V8
SYMBOL res -2448 544 M90
WINDOW 0 0 56 VBottom 2
WINDOW 3 32 56 VTop 2
SYMATTR InstName R46
SYMATTR Value {R2b}
SYMBOL res -2336 544 M90
WINDOW 0 0 56 VBottom 2
WINDOW 3 32 56 VTop 2
SYMATTR InstName R47
SYMATTR Value {R1b}
SYMBOL cap -2432 592 M0
SYMATTR InstName C13
SYMATTR Value {C1b}
SYMBOL cap -2528 688 M90
WINDOW 0 0 32 VBottom 2
WINDOW 3 32 32 VTop 2
SYMATTR InstName C14
SYMATTR Value {C2b}
SYMBOL res -2064 560 M90
WINDOW 0 0 56 VBottom 2
WINDOW 3 32 56 VTop 2
SYMATTR InstName R48
SYMATTR Value {R2a}
SYMBOL res -1952 560 M90
WINDOW 0 0 56 VBottom 2
WINDOW 3 32 56 VTop 2
SYMATTR InstName R49
SYMATTR Value {R1a}
SYMBOL cap -2048 608 M0
SYMATTR InstName C15
SYMATTR Value {C1a}
SYMBOL Opamps\\LT1124 -2112 496 M0
SYMATTR InstName U26
SYMBOL res -3312 672 M90
WINDOW 0 7 56 VBottom 2
WINDOW 3 25 56 VTop 2
SYMATTR InstName R50
SYMATTR Value 1k
SYMBOL res -3312 800 M90
WINDOW 0 7 56 VBottom 2
WINDOW 3 25 56 VTop 2
SYMATTR InstName R51
SYMATTR Value 1k
SYMBOL res -3472 800 M90
WINDOW 0 7 56 VBottom 2
WINDOW 3 25 56 VTop 2
SYMATTR InstName R52
SYMATTR Value 1k
SYMBOL res -3360 672 M180
WINDOW 0 36 76 Left 2
WINDOW 3 36 40 Left 2
SYMATTR InstName R53
SYMATTR Value 1k
SYMBOL Opamps\\opamp2 -3408 768 R180
WINDOW 3 14 104 Left 2
SYMATTR Value OPA404
SYMATTR InstName U27
SYMBOL cap -2144 704 M90
WINDOW 0 0 32 VBottom 2
WINDOW 3 32 32 VTop 2
SYMATTR InstName C16
SYMATTR Value {C2a}
SYMBOL Opamps\\LT1124 -2496 480 M0
SYMATTR InstName U28
SYMBOL source-Vmarker -4784 656 R0
SYMATTR Value V={Rf}
SYMATTR InstName U31
SYMBOL source-Vmarker -4784 688 R0
SYMATTR Value V={Rb}
SYMATTR InstName U32
SYMBOL source-Vmarker -4784 720 R0
SYMATTR Value V={Rg}
SYMATTR InstName U33
SYMBOL res -4880 1168 R270
WINDOW 0 25 56 VTop 2
WINDOW 3 7 56 VBottom 2
SYMATTR InstName Rf2
SYMATTR Value {Rf}
SYMBOL res -4672 1168 M270
WINDOW 0 25 56 VTop 2
WINDOW 3 7 56 VBottom 2
SYMATTR InstName Rg2
SYMATTR Value {Rg}
SYMBOL res -4656 832 M270
WINDOW 0 25 56 VTop 2
WINDOW 3 7 56 VBottom 2
SYMATTR InstName Rb2
SYMATTR Value {Rb}
SYMBOL source-Vmarker -4512 816 M0
WINDOW 3 -13 0 Right 2
SYMATTR Value V={Vref}
SYMATTR InstName U34
SYMBOL source-Vmarker -5168 832 R0
SYMATTR InstName U35
SYMBOL Opamps\\LT1058 -4560 -544 M180
SYMATTR InstName U37
SYMBOL Opamps\\LT1058 -4160 -560 R0
SYMATTR InstName U38
SYMBOL Opamps\\LT1058 -5072 -528 R0
SYMATTR InstName U39
SYMBOL cap -4208 -672 R270
WINDOW 0 32 32 VTop 2
WINDOW 3 0 32 VBottom 2
SYMATTR InstName C17
SYMATTR Value 1p
SYMBOL References\\LT6650 -4256 928 M0
SYMATTR InstName U40
SYMBOL res -4416 880 M0
SYMATTR InstName R54
SYMATTR Value {(VrefSet/0.4V-1)*20k}
SYMBOL res -4416 992 M0
SYMATTR InstName R55
SYMATTR Value 20k
SYMBOL MDB_sym\\jumperRes -4576 688 M0
SYMATTR InstName U41
SYMBOL res -4144 816 M270
WINDOW 0 25 56 VTop 2
WINDOW 3 7 56 VBottom 2
SYMATTR InstName R56
SYMATTR Value 1k
SYMBOL cap -4240 720 M0
SYMATTR InstName C18
SYMATTR Value 1n
SYMBOL source-Vmarker -4144 800 M0
SYMATTR InstName U42
SYMBOL EIT_Semiconductors\\nmos -2080 -768 R0
SYMATTR InstName M1
SYMATTR Value IRFP240
SYMBOL EIT_Semiconductors\\pmos -2080 -80 M180
SYMATTR InstName M2
SYMATTR Value IRFP9240
SYMBOL cap -2176 -240 M0
SYMATTR InstName C2
SYMATTR Value 10f
SYMBOL res -5296 48 M90
WINDOW 0 0 56 Invisible 2
WINDOW 3 32 56 VTop 2
SYMATTR InstName R12
SYMATTR Value 5k36
SYMBOL res -5184 48 M90
WINDOW 0 0 56 Invisible 2
WINDOW 3 32 56 VTop 2
SYMATTR InstName R13
SYMATTR Value 9k09
SYMBOL cap -5088 16 R270
WINDOW 0 32 32 Invisible 2
WINDOW 3 0 32 VBottom 2
SYMATTR InstName C19
SYMATTR Value 1n5
SYMBOL cap -5056 96 M0
WINDOW 0 24 8 Invisible 2
SYMATTR InstName C20
SYMATTR Value 1n
SYMBOL res -4880 64 M90
WINDOW 0 0 56 Invisible 2
WINDOW 3 32 56 VTop 2
SYMATTR InstName R14
SYMATTR Value 2k67
SYMBOL res -4768 64 M90
WINDOW 0 0 56 Invisible 2
WINDOW 3 32 56 VTop 2
SYMATTR InstName R15
SYMATTR Value 1k33
SYMBOL cap -4672 16 R270
WINDOW 0 32 32 Invisible 2
WINDOW 3 0 32 VBottom 2
SYMATTR InstName C21
SYMATTR Value 6n8
SYMBOL cap -4640 112 M0
WINDOW 0 24 8 Invisible 2
SYMATTR InstName C22
SYMATTR Value 1n
SYMBOL MDB_sym\\jumperRes -4352 32 R0
SYMATTR InstName U19
SYMBOL EXTRA\\Misc\\pot -5168 -448 M0
SYMATTR InstName U18
SYMATTR Value R=100k
SYMBOL Opamps\\LT1058 -4976 144 M180
SYMATTR InstName U20
SYMBOL Opamps\\LT1058 -4560 160 M180
SYMATTR InstName U4
SYMBOL res -5312 -736 M90
WINDOW 0 0 56 Invisible 2
WINDOW 3 32 56 VTop 2
SYMATTR InstName R17
SYMATTR Value 1k
SYMBOL cap -5168 -704 M0
WINDOW 0 24 8 Invisible 2
WINDOW 3 -19 14 Left 2
SYMATTR InstName C24
SYMATTR Value 1n
SYMBOL Opamps\\LT1058 -5088 -640 M180
SYMATTR InstName U5
SYMBOL source-Vmarker -5200 -1008 R0
WINDOW 3 -30 -1 Right 2
SYMATTR Value V={Aref}
SYMATTR InstName U21
SYMBOL res -5488 1136 R90
WINDOW 0 7 56 VBottom 2
WINDOW 3 25 56 VTop 2
SYMATTR InstName R136
SYMATTR Value 100
SYMBOL cap -5584 1168 M0
SYMATTR InstName C23
SYMATTR Value 1p
SYMBOL source-I -2384 -800 R180
WINDOW 0 59 61 Left 2
WINDOW 3 47 37 Left 2
WINDOW 123 0 0 Left 2
WINDOW 39 35 11 Left 2
SYMATTR InstName I1
SYMATTR Value {Iq}
SYMATTR SpiceLine load
SYMBOL res -3504 -736 M90
WINDOW 0 7 56 VBottom 2
WINDOW 3 25 56 VTop 2
SYMATTR InstName R3
SYMATTR Value 3k3
SYMBOL res -3392 -736 M90
WINDOW 0 7 56 VBottom 2
WINDOW 3 25 56 VTop 2
SYMATTR InstName R5
SYMATTR Value 3k3
SYMBOL res -3376 -912 M90
WINDOW 0 7 56 VBottom 2
WINDOW 3 25 56 VTop 2
SYMATTR InstName R6
SYMATTR Value 3k3
SYMBOL cap -2320 -896 R0
SYMATTR InstName C25
SYMATTR Value 22p
SYMBOL cap -2320 16 M180
WINDOW 0 24 64 Left 2
WINDOW 3 24 8 Left 2
SYMATTR InstName C26
SYMATTR Value 22p
TEXT -5264 -1824 Left 2 ;;.tran 0 100m 1m\n;.options plotwinsize=0\n;.tran 0 2.8m 1.9m 1e-7\n.ac oct 100 10 1meg
TEXT -3992 -1800 Left 2 !; ---------------------\n;   Power amp\n; ---------------------\n;.param Rset_bias = 100\n.param Iq = 1m\n;.param UV1 = 0.75V\n.param bias_be1 = 150\n;.param bias_b1 = {UV1/Ik3}\n.param bias_b1 = 750\n.param Lcoil = 170u
TEXT -4232 -1800 Left 2 !; ---------------------\n;   Compensator\n; ---------------------\n.param Rsu = 1k\n.param Kp = 5\n;.param Ki = 15000
TEXT -4232 -1632 Left 2 !; ---------------------\n;   SOURCES\n; ---------------------\n.param Vsup = 25V\n.param Vstim_peak = 5\n.param Aref = 2.5V  ; Ref2050
TEXT -5264 -1688 Left 2 ;.option noopiter\n.options plotwinsize=0\n.four 1k 10 I(L1)
TEXT -3048 -488 Left 2 !.param Cf = 3p3
TEXT -4880 -1576 Left 2 ;PULSE({-Vstim_peak} {Vstim_peak} 0 100n 100n 1m 2m)\nPULSE({-Vstim_peak} {Vstim_peak} 0 100m 100n 500u 100m)
TEXT -2832 40 Left 2 !.param Rshm=0.003
TEXT -2152 -512 Left 2 ;150R
TEXT -2160 -336 Left 2 ;150R
TEXT -5264 -1720 Left 2 ;.dc V3 -5 5 .01
TEXT -1856 -984 Left 3 ;Bias_b1 = 750R\nBias_be1 = 15R\n2x2 1N4148 \nI3=1mA \n-------------------------\n55mA Ruhestrom durch Rs
TEXT -5264 -1856 Left 2 !.tran 20m uic
TEXT -5264 -1600 Left 2 ;.tran 0 100m 1m\n.options plotwinsize=0
TEXT -5256 -1536 Left 2 ;.tran 0 50m\n.options plotwinsize=0
TEXT -5264 -1488 Left 2 ;.step param I0 list 100u 10n
TEXT -3056 72 Left 2 ;Vu1= -10/3
TEXT -3448 56 Left 2 ;Vu2 = 20
TEXT -2832 88 Left 2 ;gesamt Av=40dB
TEXT -3680 -560 Left 2 ;.param TEST=1\n;.step param TEST list 1 0\n;.step param Kpi list 2 5 25
TEXT -3376 -624 Left 2 !.param Ctp = 10p
TEXT -5784 -1064 Left 5 ;STM32f429i
TEXT -5776 -856 Left 5 ;STM32 DAC \nVout_ctrl
TEXT -3544 -1856 Left 2 ;Messwandler v1.6\nSTM32 DAC out --> Endstufe Vin_ctrl\n0 ... 3V                --> -5V ... 5V\n \nENDSTUFE INVERTIERT!!!!\n------------------------------------------------------------------------\nUa=Ue2 * (R1+R2)/R1 * R4/(R3+R4) - Ue1 * R2/R1\nUe1 * R2/R1 @ Ue1=3V  !=  10V  \n -->  R2=10/3*R1\n------------------------------------------------------------------------\nUe2* 13/3 * R4/(R3+R4) @ Ue2=2.5V (ref)  !=  +5V\n --> R4/(R3+R4)  !=  5V * 3/(13 * 2.5V)\n<--> (R3+R4)/R4  !=  13/6\n--> R3=7a   R4=6a     a el. |R\n------------------------------------------------------------------------
TEXT -5768 40 Left 2 ;PULSE(0 3 2m 10n 10n 500u 1m)
TEXT -3520 -1368 Left 2 !.include LM358.lib\n.include OPA404.LIB
TEXT -4632 -800 Left 2 !.param R9 = 27k\n.param R4b = 3910\n.param R10 = 1220
TEXT -4176 -392 Left 2 !.param R1=60k\n.param R2=120k\n.param R3=60k\n.param R4=120k
TEXT -3208 520 Right 2 ;INA213B
TEXT -2208 1112 Left 2 ;; ti filter bench\n; **********  Antialias posDemod ADC  **********\n; Lowpass, Sallen Key, Gaussian to 6 dB\n; fc = 20kHz   (Cut-off)\n; fs = 100kHz (Stopband)\n; Asb = -45dB (Verstärkung bei fs)\n  \n.param R1a=5.36k  R2a=9.09k  C1a=910p  C2a=1.5n\n.param R1b=2.67k R2b=1.33k  C1b=910p  C2b=6.8n
TEXT -2744 864 Left 2 !; ti filter bench\n; **********  Antialias posDemod ADC  **********\n; Lowpass, Sallen Key, Chebyshev 0.2 dB\n; fc = 10kHz   (Cut-off)\n; fs = 33kHz (Stopband)\n; Asb = -45dB (Verstärkung bei fs)\n \n.param R1a=12.7k  R2a=22.1k  C1a=910p  C2a=1.8n\n.param R1b=2.67k R2b=3.32k  C1b=910p  C2b=22n
TEXT -4368 1328 Left 2 !.param deltaVpos = 20V\n.param deltaVa = 3V\n.param VaMin = 0V \n.param gain = deltaVa / deltaVpos
TEXT -2456 424 Right 3 ;Antialias position signal
TEXT -4448 1264 Right 3 ;LTC6360 Dimensionierung
TEXT -5112 632 Right 3 ;SAR ADC driver\nAngular position