Version 4
SHEET 1 880 680
WIRE 224 16 160 16
WIRE 528 16 464 16
WIRE 224 32 224 16
WIRE 528 32 528 16
WIRE 224 128 224 112
WIRE 528 128 528 112
WIRE 160 176 80 176
WIRE 464 176 384 176
WIRE 80 192 80 176
WIRE 384 192 384 176
WIRE 224 256 224 224
WIRE 528 256 528 224
WIRE 80 288 80 272
WIRE 384 288 384 272
FLAG 224 256 0
FLAG 80 288 0
FLAG 528 256 0
FLAG 384 288 0
SYMBOL EIT_Semiconductors\\npn 160 128 R0
SYMATTR InstName Q1
SYMATTR Value NPNx 1
SYMBOL source-Vmarker 160 16 R0
SYMATTR InstName U1
SYMBOL res 208 16 R0
SYMATTR InstName R1
SYMATTR Value 100
SYMBOL source-I 80 192 R0
WINDOW 123 0 0 Left 2
WINDOW 39 0 0 Left 2
SYMATTR InstName I1
SYMATTR Value 100µ
SYMBOL MJ11016G 464 128 R0
SYMATTR InstName U2
SYMBOL source-Vmarker 464 16 R0
SYMATTR Value V=100V
SYMATTR InstName U3
SYMBOL res 512 16 R0
SYMATTR InstName R2
SYMATTR Value 1
SYMBOL source-I 384 192 R0
WINDOW 123 0 0 Left 2
WINDOW 39 0 0 Left 2
SYMATTR InstName I2
SYMATTR Value 1000µ
TEXT 208 -32 Left 2 !.model npnx npn (Is={1m/exp(0.7/26m)} Bf=200)
TEXT 52 312 Left 2 !.dc I2 0 1 0.0001
