Version 4
SHEET 1 880 680
WIRE 688 -16 624 -16
WIRE 688 32 688 -16
WIRE 192 96 176 96
WIRE 272 96 272 32
WIRE 272 144 272 96
WIRE 688 160 688 112
WIRE 64 192 0 192
WIRE 176 192 176 96
WIRE 176 192 144 192
WIRE 208 192 176 192
WIRE 480 208 464 208
WIRE 592 208 560 208
WIRE 624 208 592 208
WIRE 592 240 592 208
WIRE 0 272 0 192
WIRE 464 288 464 208
WIRE 688 304 688 256
WIRE 272 320 272 240
WIRE 592 336 592 320
WIRE 0 384 0 352
WIRE 464 400 464 368
WIRE 272 432 272 400
FLAG 272 432 0
FLAG 16 384 0
FLAG 0 384 0
FLAG 480 400 0
FLAG 464 400 0
FLAG 688 304 0
FLAG 592 336 0
SYMBOL EIT_Semiconductors\\pnp 208 240 M180
SYMATTR InstName T2
SYMATTR Value FMMT723
SYMBOL source-Vmarker 272 32 R0
SYMATTR Value V=12V
SYMATTR InstName U1
SYMBOL res 256 304 R0
SYMATTR InstName R1
SYMATTR Value 10k
SYMBOL res 288 80 R90
WINDOW 0 7 56 VBottom 2
WINDOW 3 25 56 VTop 2
SYMATTR InstName R2
SYMATTR Value 100k
SYMBOL res 160 176 R90
WINDOW 0 7 56 VBottom 2
WINDOW 3 25 56 VTop 2
SYMATTR InstName R3
SYMATTR Value 22k
SYMBOL source-V 0 256 R0
WINDOW 123 0 0 Left 2
WINDOW 39 0 0 Left 2
SYMATTR InstName V1
SYMATTR Value PULSE(12 0 1m)
SYMBOL EIT_Semiconductors\\npn 624 160 R0
SYMATTR InstName T1
SYMATTR Value FMMT624
SYMBOL res 672 16 R0
SYMATTR InstName R4
SYMATTR Value 10k
SYMBOL res 576 192 R90
WINDOW 0 7 56 VBottom 2
WINDOW 3 25 56 VTop 2
SYMATTR InstName R5
SYMATTR Value 22k
SYMBOL source-V 464 272 R0
WINDOW 123 0 0 Left 2
WINDOW 39 0 0 Left 2
SYMATTR InstName V2
SYMATTR Value PULSE(0 5 1m)
SYMBOL source-Vmarker 624 -16 R0
SYMATTR Value V=12V
SYMATTR InstName U2
SYMBOL res 608 336 R180
WINDOW 0 36 76 Left 2
WINDOW 3 36 40 Left 2
SYMATTR InstName R6
SYMATTR Value 100k
TEXT -28 454 Left 2 !.tran 4m
