Version 4
SHEET 1 880 680
WIRE 64 -352 64 -368
WIRE -32 -288 -48 -288
WIRE 64 -288 64 -352
WIRE 64 -288 48 -288
WIRE 64 -240 64 -288
WIRE -48 -192 -48 -288
WIRE 0 -192 -48 -192
WIRE -48 -128 -48 -192
WIRE 64 -96 64 -144
WIRE 64 -96 -16 -96
WIRE 64 -64 64 -96
WIRE -48 48 -48 -64
WIRE 64 48 64 16
WIRE 64 48 -48 48
WIRE 64 128 64 48
FLAG 64 208 0
SYMBOL npn 0 -240 R0
SYMATTR InstName Q1
SYMATTR Value BC550BP
SYMBOL res 64 -272 M270
WINDOW 0 25 56 VTop 2
WINDOW 3 7 56 VBottom 2
SYMATTR InstName R1
SYMATTR Value 27k
SYMBOL res 48 -80 R0
SYMATTR InstName R2
SYMATTR Value {Rset}
SYMBOL SBORKA\\REF\\tlv431_my -32 -128 M0
SYMATTR InstName U1
SYMBOL res 80 224 R180
WINDOW 0 36 76 Left 2
WINDOW 3 36 40 Left 2
SYMATTR InstName R3
SYMATTR Value 100
SYMBOL source-Vmarker 64 -352 R0
SYMATTR Value V=30V
SYMATTR InstName U2
TEXT 360 -224 Left 2 !.op
TEXT 264 -152 Left 2 !.step param Rset 200 5k 25
