Version 4
SHEET 1 952 948
WIRE -16 -112 -96 -112
WIRE 160 -112 48 -112
WIRE -272 0 -496 0
WIRE -224 0 -272 0
WIRE -96 0 -96 -112
WIRE -96 0 -144 0
WIRE -48 0 -96 0
WIRE 160 0 160 -112
WIRE 160 0 32 0
WIRE -496 48 -496 0
WIRE -272 48 -272 0
WIRE 32 48 16 48
WIRE 16 64 16 48
WIRE -96 112 -96 0
WIRE -16 112 -96 112
WIRE -496 144 -496 128
WIRE 160 144 160 0
WIRE 160 144 128 144
WIRE 192 144 160 144
WIRE 320 144 256 144
WIRE -272 176 -272 128
WIRE -16 176 -272 176
WIRE -272 224 -272 176
WIRE 16 256 16 224
WIRE -608 304 -608 272
WIRE 320 496 304 496
WIRE 448 496 400 496
WIRE 496 496 448 496
WIRE 704 496 576 496
WIRE -256 528 -272 528
WIRE -208 528 -256 528
WIRE -80 528 -128 528
WIRE -32 528 -80 528
WIRE 176 528 48 528
WIRE 576 544 560 544
WIRE 560 560 560 544
WIRE 48 576 32 576
WIRE 32 592 32 576
WIRE 448 608 448 496
WIRE 528 608 448 608
WIRE -80 640 -80 528
WIRE 0 640 -80 640
WIRE 704 640 704 496
WIRE 704 640 672 640
WIRE 736 640 704 640
WIRE 864 640 800 640
WIRE 176 672 176 528
WIRE 176 672 144 672
WIRE 208 672 176 672
WIRE 336 672 272 672
WIRE 528 672 336 672
WIRE 560 752 560 720
WIRE 32 784 32 752
FLAG -272 224 0
FLAG -272 0 shunt
FLAG 320 144 Isensa
FLAG -608 304 0
FLAG -496 144 0
FLAG -608 192 0
FLAG -384 336 0
FLAG 864 640 Isensb
FLAG -256 528 shunt
FLAG 0 704 0
FLAG 304 496 0
FLAG 336 672 g
SYMBOL res -256 32 M0
SYMATTR InstName Rshunt1
SYMATTR Value .003
SYMBOL Misc\\jumper 224 80 R0
SYMATTR InstName X1
SYMBOL Opamps\\LTC2050 16 144 R0
SYMATTR InstName U1
SYMBOL source-Vmarker 32 48 M0
SYMATTR InstName U2
SYMBOL source-Vmarker 16 256 M180
SYMATTR Value V=-5V
SYMATTR InstName U3
SYMBOL res 48 16 M270
WINDOW 0 32 56 VTop 2
WINDOW 3 0 56 VBottom 2
SYMATTR InstName R1
SYMATTR Value {2.5k*k}
SYMBOL res -128 16 M270
WINDOW 0 32 56 VTop 2
WINDOW 3 0 56 VBottom 2
SYMATTR InstName R2
SYMATTR Value 25
SYMBOL cap 48 -96 M270
WINDOW 0 32 32 VTop 2
WINDOW 3 0 32 VBottom 2
SYMATTR InstName C1
SYMATTR Value 10p
SYMBOL source-Vmarker 64 224 M0
SYMATTR InstName U4
SYMBOL source-I -608 192 R0
WINDOW 123 29 97 Left 2
WINDOW 39 0 0 Left 2
SYMATTR InstName I1
SYMATTR Value 1
SYMATTR Value2 AC 1
SYMBOL source-V -384 240 R0
WINDOW 3 28 129 Left 2
WINDOW 123 28 105 Left 2
WINDOW 39 0 0 Left 2
SYMATTR InstName V1
SYMATTR Value PULSE({-A} {A} 0 10p 10p 100u 200u)
SYMATTR Value2 AC 1
SYMBOL source-V -496 32 R0
WINDOW 3 28 129 Left 2
WINDOW 123 28 105 Left 2
WINDOW 39 0 0 Left 2
SYMATTR InstName V2
SYMATTR Value ""
SYMATTR Value2 AC 1m
SYMBOL Misc\\jumper 240 608 R0
SYMATTR InstName X2
SYMBOL Opamps\\LTC2050 32 672 R0
SYMATTR InstName U5
SYMBOL source-Vmarker 48 576 M0
SYMATTR InstName U6
SYMBOL source-Vmarker 32 784 M180
SYMATTR Value V=-5V
SYMATTR InstName U7
SYMBOL res 64 544 M270
WINDOW 0 32 56 VTop 2
WINDOW 3 0 56 VBottom 2
SYMATTR InstName R3
SYMATTR Value 250
SYMBOL res -112 544 M270
WINDOW 0 32 56 VTop 2
WINDOW 3 0 56 VBottom 2
SYMATTR InstName R4
SYMATTR Value 25
SYMBOL source-Vmarker 80 752 M0
SYMATTR InstName U8
SYMBOL Misc\\jumper 768 576 R0
SYMATTR InstName X3
SYMBOL Opamps\\LTC2050 560 640 R0
SYMATTR InstName U9
SYMBOL source-Vmarker 576 544 M0
SYMATTR InstName U10
SYMBOL source-Vmarker 560 752 M180
SYMATTR Value V=-5V
SYMATTR InstName U11
SYMBOL res 592 512 M270
WINDOW 0 32 56 VTop 2
WINDOW 3 0 56 VBottom 2
SYMATTR InstName R5
SYMATTR Value 180
SYMBOL res 416 512 M270
WINDOW 0 32 56 VTop 2
WINDOW 3 0 56 VBottom 2
SYMATTR InstName R6
SYMATTR Value 20
SYMBOL source-Vmarker 608 720 M0
SYMATTR InstName U12
TEXT -524 278 Left 2 !;ac oct 100 100 10meg
TEXT -472 -120 Left 2 ;.step param k list 1 .1
TEXT -448 -40 Left 2 !.param k=1\n.param A=0
TEXT -624 -80 Left 2 ;.step param A list 10m 50m 100m 500m
TEXT 304 288 Left 2 ;.noise V(g) V2 oct 100 1 10k
TEXT 304 312 Left 2 ;.noise V(isensa) V2 oct 100 1 10k
TEXT 304 336 Left 2 ;.noise V(isensb) V2 oct 100 1 10k
