Version 4
SHEET 1 880 680
WIRE 176 -256 176 -304
WIRE 176 -144 176 -176
WIRE -32 -96 -80 -96
WIRE 80 -96 48 -96
WIRE 112 -96 80 -96
WIRE -80 -48 -80 -96
WIRE 80 -48 80 -96
WIRE -80 64 -80 32
WIRE 80 64 80 32
WIRE 176 64 176 -48
FLAG 80 64 0
FLAG 176 64 0
FLAG -80 64 0
SYMBOL EIT_Semiconductors\\npn 112 -144 R0
SYMATTR InstName Q1
SYMATTR Value NPNx
SYMBOL res 64 -112 R90
WINDOW 0 0 56 VBottom 2
WINDOW 3 32 56 VTop 2
SYMATTR InstName R1
SYMATTR Value {R1}
SYMBOL res 96 48 R180
WINDOW 0 36 76 Left 2
WINDOW 3 36 40 Left 2
SYMATTR InstName R2
SYMATTR Value 14.44k
SYMBOL res 192 -160 R180
WINDOW 0 36 76 Left 2
WINDOW 3 36 40 Left 2
SYMATTR InstName R3
SYMATTR Value 4.7k
SYMBOL source-V -80 -64 R0
WINDOW 3 -48 195 Left 2
WINDOW 123 0 0 Left 2
WINDOW 39 0 0 Left 2
SYMATTR InstName V1
SYMATTR Value {uina}
SYMBOL source-Vmarker 176 -304 R180
SYMATTR InstName U1
TEXT -104 -400 Left 2 !.param Ic0=1mA\n.param R1=227k
TEXT 8 168 Left 2 !.step param uina 12V 3V 0.05\n.step param R1 list 227k 200k 180k 150k
TEXT -130 188 Left 2 !.op
TEXT -112 -456 Left 2 !.model npnx npn (Is={Ic0/exp(.65V/26m)} Bf=200 )
