Version 4
SHEET 1 880 680
WIRE 352 64 64 64
WIRE 352 80 352 64
WIRE 64 112 64 64
WIRE 352 176 352 160
WIRE 64 208 64 192
WIRE 352 272 352 256
FLAG -64 208 0
FLAG -64 128 0
FLAG 64 208 0
FLAG 352 272 0
SYMBOL source-V 64 96 R0
WINDOW 123 0 0 Left 2
WINDOW 39 0 0 Left 2
SYMATTR InstName V1
SYMATTR Value PULSE(0 {A} 1m 1n 1n)
SYMBOL source-I -64 128 R0
WINDOW 123 0 0 Left 2
WINDOW 39 0 0 Left 2
SYMATTR InstName I1
SYMATTR Value 1
SYMBOL res 336 160 R0
SYMATTR InstName R1
SYMATTR Value 3.5
SYMBOL ind 336 64 R0
SYMATTR InstName L1
SYMATTR Value 170µ
TEXT -80 296 Left 2 !.param A = 10
TEXT 0 336 Left 2 !.step param A 1 50 .25
