Version 4
SHEET 1 880 680
WIRE 160 112 0 112
WIRE 160 128 160 112
WIRE 0 192 0 112
WIRE 160 240 160 208
WIRE 224 240 160 240
WIRE 160 256 160 240
WIRE 0 384 0 272
WIRE 160 384 160 320
FLAG 160 384 0
FLAG 0 384 0
FLAG 224 240 Vd
SYMBOL res 144 112 R0
SYMATTR InstName R1
SYMATTR Value {Rpot}
SYMBOL diode 144 256 R0
SYMATTR InstName D1
SYMATTR Value 1N4148
SYMBOL BOR_sym\\source-V 0 176 R0
WINDOW 123 0 0 Left 2
WINDOW 39 0 0 Left 2
SYMATTR InstName V1
SYMATTR Value 5
TEXT -96 56 Left 2 ;.step param Rpot list 1k 10k
TEXT 64 0 Left 2 !.param Rpot=1k
TEXT -98 408 Left 2 !.dc V1 0.1 1 50m
