Version 4
SHEET 1 880 680
WIRE -80 112 -128 112
WIRE 96 112 16 112
WIRE 224 112 96 112
WIRE 224 144 224 112
WIRE 96 176 96 112
WIRE 96 304 96 256
WIRE 224 304 224 240
FLAG 96 304 0
FLAG 224 304 0
SYMBOL SBORKA\\Switch\\jumpernew -32 144 R0
WINDOW 3 0 0 Left 2
SYMATTR Value status={jp}
SYMATTR InstName U1
SYMBOL MDB_sym\\source-Vmarker -128 112 R0
SYMATTR InstName U2
SYMBOL res 80 160 R0
SYMATTR InstName R1
SYMATTR Value 100
SYMBOL SBORKA\\Switch\\jumpernew 192 192 R90
WINDOW 3 0 0 Left 2
SYMATTR Value status={1-jp}
SYMATTR InstName U3
SYMBOL MDB_sym\\source-Vmarker 96 112 R0
SYMATTR InstName U4
TEXT -200 328 Left 2 !.tran 1
TEXT -120 248 Left 2 !.param jp = 0
