Version 4
SHEET 1 968 680
WIRE 240 -512 224 -512
WIRE 240 -480 224 -480
WIRE -192 -400 -208 -400
WIRE -96 -400 -112 -400
WIRE -80 -400 -96 -400
WIRE 32 -400 0 -400
WIRE -432 -384 -464 -384
WIRE -1424 -352 -1456 -352
WIRE -1424 -320 -1456 -320
WIRE -1728 -304 -1760 -304
WIRE -1696 -304 -1728 -304
WIRE -96 -304 -96 -400
WIRE -80 -304 -96 -304
WIRE -1424 -288 -1456 -288
WIRE 32 -288 32 -400
WIRE 32 -288 -16 -288
WIRE -80 -272 -112 -272
WIRE 32 -272 32 -288
WIRE -1728 -256 -1760 -256
WIRE -1696 -256 -1728 -256
WIRE -1424 -224 -1456 -224
WIRE 32 -176 32 -192
WIRE -240 -112 -256 -112
WIRE -144 -112 -160 -112
WIRE -80 -112 -144 -112
WIRE 80 -112 0 -112
WIRE -80 -48 -96 -48
WIRE -96 -32 -96 -48
WIRE -144 16 -144 -112
WIRE -112 16 -144 16
WIRE 80 48 80 -112
WIRE 80 48 48 48
WIRE 96 48 80 48
WIRE 80 64 80 48
WIRE -112 80 -144 80
WIRE -1104 112 -1120 112
WIRE -1024 112 -1040 112
WIRE -32 128 -48 128
WIRE -16 128 -32 128
WIRE -96 144 -96 128
WIRE -80 144 -96 144
WIRE -1104 160 -1120 160
WIRE -1024 160 -1024 112
WIRE -1024 160 -1040 160
WIRE -1008 160 -1024 160
WIRE -912 160 -928 160
WIRE -896 160 -912 160
WIRE -800 160 -816 160
WIRE 80 160 80 144
WIRE -832 224 -848 224
WIRE -912 240 -912 160
WIRE -880 240 -912 240
WIRE -768 256 -816 256
WIRE -880 272 -912 272
WIRE -1104 288 -1136 288
WIRE -1008 288 -1040 288
WIRE -832 288 -848 288
WIRE -112 288 -112 272
WIRE -96 288 -112 288
WIRE -48 288 -64 288
WIRE -1104 336 -1168 336
WIRE -1008 336 -1008 288
WIRE -1008 336 -1040 336
WIRE -912 336 -912 272
WIRE -912 336 -928 336
WIRE -880 336 -912 336
WIRE -768 336 -768 256
WIRE -768 336 -800 336
WIRE -112 368 -112 352
WIRE -912 416 -912 336
WIRE -864 416 -912 416
WIRE -768 416 -768 336
WIRE -768 416 -800 416
FLAG -800 160 0
FLAG -1120 112 pwrCtrlx
IOPIN -1120 112 In
FLAG -832 224 -12V
FLAG -832 288 +12V
FLAG -544 -384 0
FLAG -432 -384 stimac2
FLAG -1120 160 stimac2
IOPIN -1120 160 In
FLAG -1136 288 0
FLAG -800 464 0
FLAG -864 464 0
FLAG 240 -512 +Vpwr
FLAG 240 -480 -Vpwr
FLAG -208 -400 0
FLAG 32 -176 0
FLAG 96 48 opV
IOPIN 96 48 Out
FLAG -96 144 -Vpwr
FLAG -96 -48 +Vpwr
FLAG -1424 -352 +12V
FLAG -1424 -320 -12V
FLAG -1696 -256 Aref_2
FLAG -1696 -304 Aref
FLAG -1424 -288 +5V
FLAG -1424 -224 -5V
FLAG -192 -272 stimac2
FLAG -256 -112 0
FLAG 80 160 0
FLAG -224 80 stimac2
FLAG -32 128 0V
FLAG -112 272 0V
FLAG -112 368 0
FLAG -48 288 0
DATAFLAG -1728 -304 ""
DATAFLAG -1728 -256 ""
SYMBOL Misc\\jumper -1072 96 R0
SYMATTR InstName X1
SYMBOL res -1024 144 M90
WINDOW 0 7 56 VBottom 2
WINDOW 3 25 56 VTop 2
SYMATTR InstName R1
SYMATTR Value 3k3
SYMBOL res -1024 320 M90
WINDOW 0 7 56 VBottom 2
WINDOW 3 25 56 VTop 2
SYMATTR InstName R4
SYMATTR Value 3k3
SYMBOL res -896 320 M90
WINDOW 0 7 56 VBottom 2
WINDOW 3 25 56 VTop 2
SYMATTR InstName R5
SYMATTR Value 3k3
SYMBOL res -912 144 M90
WINDOW 0 7 56 VBottom 2
WINDOW 3 25 56 VTop 2
SYMATTR InstName R6
SYMATTR Value 3k3
SYMBOL source-V -448 -384 R90
WINDOW 123 38 25 VLeft 2
WINDOW 39 0 0 Left 2
WINDOW 0 16 -8 VRight 2
WINDOW 3 60 25 VLeft 2
SYMATTR Value2 AC 1
SYMATTR InstName V1
SYMATTR Value SINE(0 1 1k)
SYMBOL cap -800 400 R90
WINDOW 0 0 32 VBottom 2
WINDOW 3 32 32 VTop 2
SYMATTR InstName C3
SYMATTR Value 10p
SYMBOL Opamps\\LT1028A -848 320 M180
WINDOW 0 -104 64 Left 2
WINDOW 3 -160 91 Left 2
SYMATTR InstName U2
SYMBOL Misc\\jumper -1072 224 R0
SYMATTR InstName X4
SYMBOL EIT_Semiconductors\\op_3 -48 -288 R0
WINDOW 123 -162 162 Invisible 2
WINDOW 3 -175 134 Invisible 2
SYMATTR InstName U1
SYMBOL source-Vmarker 224 -512 R0
SYMATTR Value V=25V
SYMATTR InstName U3
SYMBOL source-Vmarker 224 -480 R0
SYMATTR Value V=-25V
SYMATTR InstName U4
SYMBOL res 16 -416 R90
WINDOW 0 7 56 VBottom 2
WINDOW 3 25 56 VTop 2
SYMATTR InstName R2
SYMATTR Value 25k
SYMBOL res -96 -416 R90
WINDOW 0 7 56 VBottom 2
WINDOW 3 25 56 VTop 2
SYMATTR InstName R3
SYMATTR Value 5k
SYMBOL res -96 -288 R90
WINDOW 0 7 56 VBottom 2
WINDOW 3 25 56 VTop 2
SYMATTR InstName R7
SYMATTR Value 1k
SYMBOL res 16 -288 R0
SYMATTR InstName R8
SYMATTR Value 1k
SYMBOL Opamps\\LTC6090 -48 48 R0
SYMATTR InstName U5
SYMBOL source-Vmarker -1456 -352 R0
SYMATTR Value V=+12V
SYMATTR InstName U6
SYMBOL source-Vmarker -1456 -320 R0
SYMATTR Value V=-12V
SYMATTR InstName U7
SYMBOL source-Vmarker -1456 -224 M180
SYMATTR Value V=-5V
SYMATTR InstName U8
SYMBOL source-Vmarker -1760 -256 R0
WINDOW 3 -14 0 Right 2
SYMATTR Value V={Aref/2}
SYMATTR InstName U9
SYMBOL source-Vmarker -1760 -304 R0
WINDOW 3 -30 -1 Right 2
SYMATTR Value V={Aref}
SYMATTR InstName U10
SYMBOL source-Vmarker -1456 -288 R0
SYMATTR Value V=+5V
SYMATTR InstName U11
SYMBOL res 16 -128 R90
WINDOW 0 7 56 VBottom 2
WINDOW 3 25 56 VTop 2
SYMATTR InstName R9
SYMATTR Value 25k
SYMBOL res -144 -128 R90
WINDOW 0 7 56 VBottom 2
WINDOW 3 25 56 VTop 2
SYMATTR InstName R10
SYMATTR Value 5k
SYMBOL res 64 48 R0
SYMATTR InstName R11
SYMATTR Value 1k
SYMBOL res -128 64 R90
WINDOW 0 7 56 VBottom 2
WINDOW 3 25 56 VTop 2
SYMATTR InstName R12
SYMATTR Value 1k
SYMBOL MDB_sym\\jumperSml -80 272 R0
SYMATTR InstName R13
TEXT -488 -504 Left 5 ;PCB power v1.3 reworked
TEXT -1208 192 Left 2 ;setpoint
TEXT -1128 408 Left 2 ;shunt feedback
TEXT 544 -400 Left 2 ;;.tran 0 100m 1m\n;.options plotwinsize=0\n;.tran 0 2.8m 1.9m 1e-7\n.ac oct 100 10 5meg
TEXT 544 -264 Left 2 ;.option noopiter\n.options plotwinsize=0\n.four 1k 10 I(L1)
TEXT 544 -296 Left 2 ;.dc V10 0 2.5 0.05
TEXT 544 -432 Left 2 !.tran 20m
TEXT 544 -176 Left 2 ;.tran 0 100m 1m\n.options plotwinsize=0
TEXT 552 -112 Left 2 ;.tran 0 50m\n.options plotwinsize=0
TEXT 544 -64 Left 2 ;.step param I0 list 100u 10n
TEXT -992 -352 Left 2 !; ---------------------\n;   Power amp\n; ---------------------\n;.param Rset_bias = 100\n.param Iq = 1m\n;.param UV1 = 0.75V\n;.param bias_be1 = 150\n.param bias_be1 = 100\n;.param bias_b1 = {UV1/Ik3}\n;.param bias_b1 = 750\n.param bias_b1 = 270\n.param Lcoil = 170u
TEXT -1232 -352 Left 2 !; ---------------------\n;   Compensator\n; ---------------------\n.param Rsu = 1k\n.param Kp = 15\n;.param Ki = 15000
TEXT -1232 -184 Left 2 !; ---------------------\n;   SOURCES\n; ---------------------\n.param Vsup = 50V\n.param Vstim_peak = 5\n.param Aref = 2.5V  ; Ref2050
TEXT -1232 -392 Left 3 ;Parameter
TEXT -936 -24 Left 2 !.param f_I_ctrl = 500
TEXT -1816 -360 Left 3 ;REF2050
RECTANGLE Normal -1124 209 -1213 176 2
RECTANGLE Normal -964 425 -1149 392 2
RECTANGLE Normal -624 40 -1264 -432 2
RECTANGLE Normal -1616 -224 -1888 -384 2
RECTANGLE Normal -1616 -224 -1888 -384 2
RECTANGLE Normal -1616 -224 -1888 -336 2
