Version 4
SHEET 1 880 680
WIRE -224 -96 -224 -112
WIRE -112 -32 -112 -144
WIRE -112 -32 -144 -32
WIRE -224 0 -224 -16
WIRE -224 0 -336 0
WIRE -224 16 -224 0
FLAG -224 -112 0
FLAG -144 -80 0
FLAG -336 0 Yp
FLAG -224 96 0
SYMBOL crtl-V-I -224 0 R180
SYMATTR InstName G1
SYMATTR Value laplace=1/(s*Lc+Rg)
SYMBOL res -240 0 R0
SYMATTR InstName Rshunt1
SYMATTR Value {Rsh}
RECTANGLE Normal -96 128 -288 -176 2
