Version 4
SHEET 1 880 680
WIRE 112 160 80 160
WIRE 208 160 176 160
WIRE 224 160 208 160
WIRE 320 160 288 160
WIRE 336 160 320 160
WIRE 80 208 80 160
WIRE 208 208 208 160
WIRE 336 208 336 160
WIRE 80 304 80 288
WIRE 208 304 208 288
WIRE 336 304 336 288
FLAG 80 304 0
FLAG 208 304 0
FLAG 80 160 n1
FLAG 208 160 n2
FLAG 336 304 0
FLAG 320 160 n3
SYMBOL source-V 80 192 R0
WINDOW 123 0 0 Left 2
WINDOW 39 0 0 Left 2
SYMATTR InstName V1
SYMATTR Value SINE(0 1 1k)
SYMBOL res 192 192 R0
SYMATTR InstName R1
SYMATTR Value 1
SYMBOL Linear_Original\\Misc\\jumper 144 96 R0
SYMATTR InstName X1
SYMATTR SpiceModel ""
SYMBOL Linear_Original\\Misc\\jumper 256 96 R0
SYMATTR InstName X2
SYMBOL res 320 192 R0
SYMATTR InstName R2
SYMATTR Value 1
TEXT 112 32 Left 2 !.tran 2m
