Version 4
SHEET 1 4408 6248
WIRE -1280 -720 -1296 -720
WIRE -1184 -720 -1184 -800
WIRE -1184 -720 -1200 -720
WIRE -1184 -672 -1184 -720
WIRE -1296 -624 -1296 -720
WIRE -1248 -624 -1296 -624
WIRE -976 -608 -976 -640
WIRE -1296 -560 -1296 -624
WIRE -864 -560 -864 -608
WIRE -1184 -528 -1184 -576
WIRE -1184 -528 -1264 -528
WIRE -976 -512 -976 -528
WIRE -928 -512 -976 -512
WIRE -1184 -496 -1184 -528
WIRE -976 -464 -976 -512
WIRE -864 -432 -864 -464
WIRE -864 -432 -944 -432
WIRE -864 -400 -864 -432
WIRE -1296 -384 -1296 -496
WIRE -1184 -384 -1184 -416
WIRE -1184 -384 -1296 -384
WIRE -1184 -304 -1184 -384
WIRE -976 -304 -976 -400
WIRE -928 -304 -976 -304
WIRE -864 -304 -864 -320
WIRE -864 -304 -928 -304
WIRE -1424 480 -1456 480
WIRE -1392 480 -1424 480
WIRE -1456 528 -1456 480
WIRE -1456 640 -1456 608
WIRE -1408 640 -1456 640
WIRE -1392 640 -1408 640
WIRE -1456 672 -1456 640
WIRE -1776 752 -1824 752
WIRE -1744 752 -1776 752
WIRE -1456 768 -1456 752
WIRE -1776 816 -1824 816
WIRE -1744 816 -1776 816
WIRE -1776 896 -1824 896
WIRE -1744 896 -1776 896
WIRE -1424 896 -1456 896
WIRE -1376 896 -1424 896
WIRE -1168 896 -1184 896
WIRE -1120 896 -1168 896
WIRE -1456 928 -1456 896
WIRE -1184 928 -1184 896
WIRE -1776 960 -1824 960
WIRE -1744 960 -1776 960
WIRE -1456 1024 -1456 1008
WIRE -1184 1024 -1184 1008
WIRE -464 1936 -464 1920
WIRE -464 2080 -464 2016
WIRE -352 2080 -352 2064
WIRE -352 2080 -464 2080
WIRE 880 2144 880 2128
WIRE -1744 2176 -1776 2176
WIRE -1616 2176 -1664 2176
WIRE -1392 2208 -1504 2208
WIRE -1312 2208 -1392 2208
WIRE -1120 2208 -1232 2208
WIRE -1056 2208 -1120 2208
WIRE -880 2208 -976 2208
WIRE -736 2208 -880 2208
WIRE -464 2208 -464 2160
WIRE -464 2208 -624 2208
WIRE -1504 2240 -1504 2208
WIRE -1232 2240 -1232 2208
WIRE -976 2240 -976 2208
WIRE 880 2240 880 2224
WIRE -1312 2256 -1312 2208
WIRE -1056 2256 -1056 2208
WIRE -1792 2272 -1840 2272
WIRE -1616 2272 -1616 2176
WIRE -1616 2272 -1792 2272
WIRE -1600 2272 -1616 2272
WIRE -1568 2272 -1600 2272
WIRE -752 2288 -768 2288
WIRE -624 2288 -624 2208
WIRE -624 2288 -672 2288
WIRE -1568 2304 -1616 2304
WIRE -1312 2320 -1312 2304
WIRE -1056 2320 -1056 2304
WIRE -1504 2336 -1504 2320
WIRE 880 2480 880 2320
WIRE 880 2480 848 2480
WIRE -1504 2544 -1520 2544
WIRE -1376 2544 -1424 2544
WIRE 880 2560 880 2480
WIRE -1616 2576 -1616 2304
WIRE -784 2624 -816 2624
WIRE -464 2624 -464 2208
WIRE -464 2624 -720 2624
WIRE -464 2640 -464 2624
WIRE -1616 2672 -1616 2576
WIRE -1520 2672 -1520 2544
WIRE -1520 2672 -1616 2672
WIRE -1488 2672 -1520 2672
WIRE -1408 2672 -1424 2672
WIRE -1376 2672 -1376 2544
WIRE -1376 2672 -1408 2672
WIRE -1296 2672 -1376 2672
WIRE -1264 2672 -1296 2672
WIRE -1024 2672 -1184 2672
WIRE -960 2672 -1024 2672
WIRE 880 2672 880 2640
WIRE -1264 2704 -1264 2672
WIRE -960 2704 -960 2672
WIRE -1184 2720 -1184 2672
WIRE -848 2720 -912 2720
WIRE -816 2720 -816 2624
WIRE -816 2720 -848 2720
WIRE -848 2752 -912 2752
WIRE -800 2752 -848 2752
WIRE -704 2752 -800 2752
WIRE -464 2752 -464 2720
WIRE -1184 2784 -1184 2768
WIRE -800 2784 -800 2752
WIRE -800 2896 -800 2864
WIRE -704 2912 -704 2752
WIRE -800 3008 -800 2976
WIRE -704 3008 -704 2992
FLAG -1776 816 V2-
FLAG -1776 752 V2+
FLAG -1424 480 stimOffs
FLAG -1184 1024 0
FLAG -1168 896 calcSum
FLAG -1456 1024 0
FLAG -1424 896 stimpwl
FLAG -1456 768 0
FLAG -1408 640 stimac
FLAG -1776 960 V-
FLAG -1776 896 V+
FLAG -864 -688 0
FLAG -976 -640 V+
FLAG -1184 -800 V+
FLAG -928 -304 V-
FLAG -1184 -224 0
FLAG -1600 2272 rt
FLAG -1504 2336 0
FLAG -1312 2320 0
FLAG -1232 2320 0
FLAG -1056 2320 0
FLAG -976 2320 0
FLAG -1184 2784 0
FLAG -1264 2784 0
FLAG -960 2784 0
FLAG -848 2752 Ms
FLAG -1792 2272 stimAC
FLAG -1120 2208 Cy
FLAG -1392 2208 e
FLAG -1616 2576 X
FLAG -1296 2672 Hy
FLAG -1024 2672 My
FLAG 880 2672 0
FLAG -848 2720 Y
FLAG -880 2208 act
FLAG -688 2208 0
FLAG -768 2288 0
FLAG -464 2752 0
FLAG -1776 2176 0
FLAG 880 2128 0
FLAG -464 1920 0
FLAG -352 1984 0
FLAG -800 3008 0
FLAG -704 3008 0
SYMBOL source-Vmarker -1824 752 R0
SYMATTR Value V=16
SYMATTR InstName U1
SYMBOL source-Vmarker -1824 816 R0
SYMATTR Value V=-16
SYMATTR InstName U2
SYMBOL source-V -1456 512 R0
WINDOW 0 -27 56 VBottom 2
WINDOW 3 212 42 Top 2
WINDOW 123 0 0 Left 2
WINDOW 39 0 0 Left 2
SYMATTR InstName V4
SYMATTR Value PULSE({Vstim_peak} 0 0 100u)
SYMBOL bv -1184 912 R0
WINDOW 3 49 50 Left 2
SYMATTR Value V=V(stimoffs)-V(isensa)
SYMATTR InstName B2
SYMBOL source-V -1456 912 R0
WINDOW 3 -112 173 Left 2
WINDOW 123 -311 -37 Left 2
WINDOW 39 0 0 Left 2
SYMATTR Value PWL(0 0 200u 1u 201u {V1} 900u {V1-1u} 901u 0 1.6m 1u 1.601m {-V1} 2.3m {-V1+1u} 2.301m 0)
SYMATTR InstName V2
SYMBOL source-V -1456 656 R0
WINDOW 3 116 61 Left 2
WINDOW 123 43 67 Left 2
WINDOW 39 0 0 Left 2
SYMATTR Value PULSE({-Vstim_peak} {Vstim_peak} 0 100n 100n 1.5m 3m)
SYMATTR Value2 AC 1
SYMATTR InstName V3
SYMBOL source-Vmarker -1824 896 R0
SYMATTR Value V={Vsup}
SYMATTR InstName U20
SYMBOL source-Vmarker -1824 960 R0
SYMATTR Value V={-Vsup}
SYMATTR InstName U21
SYMBOL res -960 -624 M0
SYMATTR InstName R1
SYMATTR Value 4.7k
SYMBOL EIT_Semiconductors\\npn -928 -560 R0
SYMATTR InstName Q7
SYMATTR Value BC547B
SYMBOL res -880 -416 R0
SYMATTR InstName R3
SYMATTR Value 829
SYMBOL res -880 -704 R0
SYMATTR InstName R20
SYMATTR Value 100
SYMBOL npn -1248 -672 R0
SYMATTR InstName Q8
SYMATTR Value BC550BP
SYMBOL res -1184 -704 M270
WINDOW 0 25 56 VTop 2
WINDOW 3 7 56 VBottom 2
SYMATTR InstName R21
SYMATTR Value 4.7k
SYMBOL res -1200 -512 R0
SYMATTR InstName R22
SYMATTR Value 829
SYMBOL SBORKA\\REF\\tlv431_my -1280 -560 M0
SYMATTR InstName U14
SYMBOL res -1168 -208 R180
WINDOW 0 36 76 Left 2
WINDOW 3 36 40 Left 2
SYMATTR InstName R27
SYMATTR Value 100
SYMBOL SBORKA\\REF\\tlv431_my -960 -464 M0
SYMATTR InstName U13
SYMBOL bv -1504 2224 R0
SYMATTR InstName sum1
SYMATTR Value V=V(rt)-V(x)
SYMBOL crtl-V-V -1232 2224 R0
SYMATTR InstName Cs
SYMATTR Value {-Kpi}
SYMBOL crtl-V-V -976 2224 R0
WINDOW 3 20 180 Left 2
SYMATTR Value .925
SYMATTR InstName Ss
SYMBOL bv -960 2688 M0
WINDOW 3 -40 131 Left 2
SYMATTR Value V=V(Y)+V(Ms)
SYMATTR InstName sum2
SYMBOL crtl-V-V -1264 2688 M0
WINDOW 3 -68 132 Left 2
SYMATTR Value { Vu1*Vu2 }
SYMATTR InstName Hs
SYMBOL res 864 2224 R0
SYMATTR InstName R31
SYMATTR Value {Rc}
SYMBOL ind 864 2128 R0
SYMATTR InstName L2
SYMATTR Value {Lc}
SYMBOL res 864 2544 R0
SYMATTR InstName Rshunt1
SYMATTR Value {Rsh}
SYMBOL res -480 2624 R0
SYMATTR InstName Rshunt3
SYMATTR Value {Rsh}
SYMBOL crtl-V-I_INV -768 2288 M90
WINDOW 3 104 -64 VRight 2
SYMATTR Value laplace=1/(s*Lc+Rg)
SYMATTR InstName G3
SYMBOL res -1648 2192 M270
WINDOW 0 32 56 VTop 2
WINDOW 3 0 56 VBottom 2
SYMATTR InstName R39
SYMATTR Value {JW0}
SYMBOL res -1408 2560 M270
WINDOW 0 32 56 VTop 2
WINDOW 3 0 56 VBottom 2
SYMATTR InstName R30
SYMATTR Value {J0}
SYMBOL res -1504 2688 R270
WINDOW 0 32 56 VTop 2
WINDOW 3 0 56 VBottom 2
SYMATTR InstName R34
SYMATTR Value {J1}
SYMBOL Misc\\jumper -752 2560 R0
SYMATTR InstName X1
SYMBOL source-I -464 2016 R180
WINDOW 0 29 73 Left 2
WINDOW 3 -49 32 Left 2
WINDOW 123 -46 131 Left 2
WINDOW 39 0 0 Left 2
SYMATTR InstName Zs
SYMATTR Value 1
SYMATTR Value2 AC 1
SYMBOL res -336 1968 M0
SYMATTR InstName R36
SYMATTR Value {JZ0}
SYMBOL source-V -800 2880 R0
WINDOW 3 -29 99 Left 2
WINDOW 123 -95 175 Left 2
WINDOW 39 0 0 Left 2
SYMATTR Value 1
SYMATTR Value2 AC {1*Rc+Rsh}
SYMATTR InstName V1
SYMBOL res -720 2896 R0
SYMATTR InstName R33
SYMATTR Value {JZ1}
TEXT -1968 -40 Left 2 !.inc ADA4700.sub
TEXT -1968 -72 Left 2 !.inc LM358.sub
TEXT -960 384 Left 2 !;tran 0 12m 6m startup uic
TEXT -1032 80 Left 2 !; ---------------------\n;   Power amp\n; ---------------------\n.param Ikff1 = 3m\n.param bias = 1k\n;.param bias_b = 100\n.param Rs = 10m\n.param Rset_bias = 100\n.param Vrail_bias = {Vsup}
TEXT -1600 88 Left 2 !; ---------------------\n;   Compensator\n; ---------------------\n.param Rsu = 10k\n.param Kpi = 10\n.param Ki = 15000
TEXT -1328 80 Left 2 !; ---------------------\n;   SOURCES\n; ---------------------\n.param Vsup = 30V\n.param Vstim_peak = 2
TEXT -1976 -296 Left 2 !.MEAS TRAN slewHi DERIV I(Rshunt) WHEN I(Rshunt)='15'\n.MEAS TRAN slewLo DERIV I(Rshunt) WHEN I(Rshunt)='-15'\n.MEAS TRAN tRise TRIG I(Rshunt) VAL=-15 RISE=1\n+ TARG I(Rshunt) VAL=15 TD 10ns RISE=1\n.MEAS TRAN tFall TRIG I(Rshunt) VAL=15 FALL=1\n+ TARG I(Rshunt) VAL=-15 TD 10ns FALL=2
TEXT -976 592 Left 2 ;.step TEMP list 27 150
TEXT -968 424 Left 2 ;.tran 0 2.8m 1.9m 1e-7
TEXT -1336 256 Left 2 !.param Ik3 = 1m\n.param UV1 = 0.75V\n.param bias_be1 = 15\n.param bias_b1 = {UV1/Ik3}
TEXT -1968 -104 Left 2 !.model SWx SW(Ron=1u Roff=100Meg Vt=0 Vh=-.5 )
TEXT -968 464 Left 2 !.option noopiter
TEXT -976 512 Left 2 !.options plotwinsize=0
TEXT -976 552 Left 2 ;.ac oct 100 1 100k
TEXT -1416 976 Left 2 !.param V1=1;
TEXT -1520 840 Left 2 ;PULSE({-Vstim_peak} {Vstim_peak} 0 100n 100n 1m 2m)
TEXT -736 96 Left 2 !;.param Bias_b1=10m\n.param Rref=2k\n.param I0=100u\n.param Iq=1m\n.param R2={Iq/I0*Rref}
TEXT -864 880 Left 2 ;.step param Vstim_peak list 5 10 15
TEXT -880 912 Left 2 ;.step param Vrail_bias  list 30V 32V 35V
TEXT -208 1976 Left 2 !.param J1={1t*(1-j)+1u}\n.param J0={1t*j+1u}\n.param K1={1t*(1-K)+1u}\n.param K0={1t*K+1u}\n.param JZ1={1t*(1-JZ)+1u}\n.param JZ0={1t*JZ+1u}\n.param JM1={1t*(1-JM)+1u}\n.param JM0={1t*JM+1u}\n.param JW1={1t*(1-JW)+1u}\n.param JW0={1t*JW+1u}\n \n.param M_in = 0;
TEXT -216 2336 Left 2 !.param Lc = 170u\n.param Rc = 1.5\n.param Rsh = 0.003\n.param Rg = {Rc+Rsh}\n.param Vu1 = -10/3\n.param Vu2 = 20 \n.param Rers = 1\n;.step param JP1 list 0 1
TEXT 528 1592 Left 2 ;Vu1= -10/3
TEXT -1080 2160 Left 2 ;S(s)\nPowerBjt
TEXT -1336 2160 Left 2 ;C(s)
TEXT -840 2160 Left 2 ;P1(s)
TEXT 808 2080 Left 2 ;P(s)
TEXT -1088 2864 Left 2 ;summe für Gm(s)
TEXT -1344 2864 Left 2 ;Current Monitor\nAmp
TEXT -416 1000 Left 2 !.ac oct 100 10 10meg
TEXT -536 2784 Left 2 ;iu(s)
TEXT -1336 2624 Left 2 ;H(s)
TEXT -1280 2952 Left 2 ;Vu2 = 20
TEXT -1152 2952 Left 2 ;Vu1= -10/3
TEXT -1616 3032 Left 2 ;Gw(s) = T(s) = G0 / (1 +G0)      inverse Sensit.\nGz(s)  = S(s) = 1 / (1 +G0)      Sensit.\nGm(s) =         = - G0 / (1 +G0)
TEXT -208 1688 Left 2 !.param J = 0\n.param K = 1\n;-----------------\n.param JZ=0\n.param JM=0\n.param JW=0\n;-----------------\n.param Az = 0\n.param Am = {1-Az}
TEXT -224 2656 Left 2 ;.step param JZ list 1 0\n;.step param Az  list  1 0
RECTANGLE Normal -1152 2368 -1344 2176 2
RECTANGLE Normal -896 2368 -1088 2176 2
RECTANGLE Normal -1152 2848 -1344 2640 2
RECTANGLE Normal 1008 2720 800 2096 2
RECTANGLE Normal -592 2176 -848 2368 2
RECTANGLE Normal -896 2848 -1088 2640 2
RECTANGLE Normal -352 2800 -544 2576 2
