Version 4
SHEET 1 880 1248
WIRE 176 -160 160 -160
WIRE 176 -144 176 -160
WIRE -80 -96 -96 -96
WIRE -64 -96 -80 -96
WIRE 80 -96 80 -112
WIRE 80 -96 16 -96
WIRE 128 -96 80 -96
WIRE 160 -96 128 -96
WIRE 368 -64 320 -64
WIRE 160 -32 128 -32
WIRE 176 32 176 16
WIRE 176 32 160 32
WIRE -96 80 -128 80
WIRE 0 80 -16 80
WIRE 32 80 0 80
WIRE 128 80 128 -32
WIRE 128 80 32 80
WIRE 192 80 128 80
WIRE 368 80 368 -64
WIRE 368 80 272 80
WIRE 0 96 0 80
WIRE 128 160 128 80
WIRE 208 160 128 160
WIRE 368 160 368 80
WIRE 368 160 272 160
WIRE 0 208 0 176
WIRE 176 384 160 384
WIRE 176 400 176 384
WIRE -32 448 -80 448
WIRE 0 448 -32 448
WIRE 128 448 0 448
WIRE 160 448 128 448
WIRE 368 480 320 480
WIRE 160 512 128 512
WIRE -32 544 -32 528
WIRE 176 576 176 560
WIRE 176 576 160 576
WIRE -176 624 -192 624
WIRE -160 624 -176 624
WIRE -16 624 -80 624
WIRE 128 624 128 512
WIRE 128 624 -16 624
WIRE 192 624 128 624
WIRE 368 624 368 480
WIRE 368 624 272 624
WIRE -16 640 -16 624
WIRE 128 704 128 624
WIRE 208 704 128 704
WIRE 368 704 368 624
WIRE 368 704 272 704
WIRE 176 880 160 880
WIRE 176 896 176 880
WIRE 160 944 128 944
WIRE 368 976 320 976
WIRE -80 1008 -96 1008
WIRE 16 1008 0 1008
WIRE 128 1008 16 1008
WIRE 160 1008 128 1008
WIRE 16 1056 16 1008
WIRE 176 1072 176 1056
WIRE 176 1072 160 1072
WIRE 128 1120 128 1008
WIRE 192 1120 128 1120
WIRE 368 1120 368 976
WIRE 368 1120 272 1120
WIRE 128 1200 128 1120
WIRE 208 1200 128 1200
WIRE 368 1200 368 1120
WIRE 368 1200 272 1200
FLAG 176 32 V+
FLAG 176 -160 V-
FLAG 224 -144 0
FLAG 64 -368 V-
FLAG 64 -336 V+
FLAG 0 208 0
FLAG 80 -176 0
FLAG -96 -16 0
FLAG -80 -96 sig
FLAG 128 -32 in-
FLAG 128 -96 in+
FLAG 368 -64 out
FLAG 176 576 V+
FLAG 176 384 V-
FLAG 224 400 0
FLAG -32 544 0
FLAG -16 704 0
FLAG -176 624 sig
FLAG 128 512 in2-
FLAG 128 448 in2+
FLAG 368 480 out2
FLAG 176 1072 V+
FLAG 176 880 V-
FLAG 224 896 0
FLAG 128 1008 in3-
FLAG 368 976 out3
FLAG 16 1120 0
FLAG 128 944 0
FLAG -96 1008 sig
DATAFLAG 32 80 ""
DATAFLAG 0 448 ""
SYMBOL Opamps\\LTC6090 224 -64 M180
WINDOW 0 63 -48 Left 2
SYMATTR InstName U1
SYMBOL res -80 -112 M90
WINDOW 0 7 56 VBottom 2
WINDOW 3 25 56 VTop 2
SYMATTR InstName R1
SYMATTR Value 10k
SYMBOL cap 208 176 R270
WINDOW 0 32 32 VTop 2
WINDOW 3 0 32 VBottom 2
SYMATTR InstName C1
SYMATTR Value {Cf}
SYMBOL source-Vmarker 64 -368 R0
SYMATTR Value V={-sup}
SYMATTR InstName U2
SYMBOL source-Vmarker 64 -336 R0
SYMATTR Value V={sup}
SYMATTR InstName U3
SYMBOL res 176 64 M90
WINDOW 0 7 56 VBottom 2
WINDOW 3 25 56 VTop 2
SYMATTR InstName R2
SYMATTR Value 453k
SYMBOL source-Vmarker -128 80 R0
SYMATTR Value V=2.5V
SYMATTR InstName U4
SYMBOL res -112 96 R270
WINDOW 0 25 56 VTop 2
WINDOW 3 7 56 VBottom 2
SYMATTR InstName R3
SYMATTR Value 16k2
SYMBOL res -16 80 R0
SYMATTR InstName R4
SYMATTR Value 16k9
SYMBOL cap 96 -112 R180
WINDOW 0 24 64 Left 2
WINDOW 3 24 8 Left 2
SYMATTR InstName C2
SYMATTR Value 470p
SYMBOL source-V -96 -112 R0
WINDOW 0 -54 47 Left 2
WINDOW 3 -105 128 Left 2
WINDOW 123 -54 71 Left 2
WINDOW 39 0 0 Left 2
SYMATTR InstName V1
SYMATTR Value SINE(1.25 1.25 {fsig} 1m)
SYMATTR Value2 AC 1
SYMBOL Opamps\\LTC6090 224 480 M180
WINDOW 0 63 -48 Left 2
SYMATTR InstName U5
SYMBOL res -176 640 R270
WINDOW 0 25 56 VTop 2
WINDOW 3 7 56 VBottom 2
SYMATTR InstName R5
SYMATTR Value {453k/55}
SYMBOL cap 208 720 R270
WINDOW 0 32 32 VTop 2
WINDOW 3 0 32 VBottom 2
SYMATTR InstName C3
SYMATTR Value {Cf}
SYMBOL res 176 608 M90
WINDOW 0 7 56 VBottom 2
WINDOW 3 25 56 VTop 2
SYMATTR InstName R6
SYMATTR Value 453k
SYMBOL source-Vmarker -160 448 R0
SYMATTR Value V=2.5V
SYMATTR InstName U6
SYMBOL res -176 464 R270
WINDOW 0 25 56 VTop 2
WINDOW 3 7 56 VBottom 2
SYMATTR InstName R7
SYMATTR Value 16k2
SYMBOL res -48 432 R0
SYMATTR InstName R8
SYMATTR Value 16k2
SYMBOL Opamps\\LTC6090 224 976 M180
WINDOW 0 63 -48 Left 2
SYMATTR InstName U7
SYMBOL cap 208 1216 R270
WINDOW 0 32 32 VTop 2
WINDOW 3 0 32 VBottom 2
SYMATTR InstName C4
SYMATTR Value {Cf}
SYMBOL res 176 1104 M90
WINDOW 0 7 56 VBottom 2
WINDOW 3 25 56 VTop 2
SYMATTR InstName R9
SYMATTR Value 500k
SYMBOL res -96 1024 R270
WINDOW 0 25 56 VTop 2
WINDOW 3 7 56 VBottom 2
SYMATTR InstName R10
SYMATTR Value 10k
SYMBOL cap -32 640 R0
SYMATTR InstName C6
SYMATTR Value 470p
SYMBOL cap 0 1056 R0
SYMATTR InstName C5
SYMATTR Value 470p
TEXT 168 224 Left 2 !.param Cf = 1p\n.param fsig = 1k\n.param sup = 70V
TEXT -222 242 Left 2 !.ac oct 100 1 10meg
TEXT -32 272 Left 2 ;8k2713
TEXT -320 -224 Left 2 ;PULSE(0 2.5 1m 1m 1n 1n 1m)
TEXT 432 1232 Left 2 !.step param cf 10p 20p 2.5p
