Version 4
SHEET 1 880 832
WIRE 64 -368 48 -368
WIRE 192 -368 176 -368
WIRE 64 -336 48 -336
WIRE 192 -336 176 -336
WIRE 64 -304 48 -304
WIRE 192 -304 176 -304
WIRE 144 -192 96 -192
WIRE 160 -192 144 -192
WIRE 144 -160 96 -160
WIRE 160 -160 144 -160
WIRE -368 -16 -384 -16
WIRE -352 -16 -368 -16
WIRE -384 0 -384 -16
WIRE 160 64 144 64
WIRE 112 80 80 80
WIRE 240 96 176 96
WIRE 256 96 240 96
WIRE 112 112 48 112
WIRE 160 128 144 128
WIRE 256 128 256 96
WIRE 304 160 288 160
WIRE 320 160 304 160
WIRE -64 208 -80 208
WIRE 48 208 48 112
WIRE 48 208 16 208
WIRE 112 208 48 208
WIRE 256 208 256 192
WIRE 256 208 192 208
WIRE 48 288 48 208
WIRE 256 288 256 208
WIRE 64 352 48 352
WIRE 80 352 80 320
WIRE 80 352 64 352
WIRE 112 464 80 464
WIRE 240 480 176 480
WIRE 256 480 240 480
WIRE 112 496 48 496
WIRE 256 512 256 480
WIRE 304 544 288 544
WIRE 320 544 304 544
WIRE -64 592 -80 592
WIRE 48 592 48 496
WIRE 48 592 16 592
WIRE 112 592 48 592
WIRE 256 592 256 576
WIRE 256 592 192 592
WIRE 48 672 48 592
WIRE 256 672 256 592
WIRE 64 736 48 736
WIRE 80 736 80 704
WIRE 80 736 64 736
FLAG 160 64 -12V
FLAG 160 128 +12V
FLAG -80 208 stim
IOPIN -80 208 In
FLAG 176 -368 -30V
FLAG 64 -336 +12V
FLAG 176 -336 -12V
FLAG 64 -304 +5V
FLAG 176 -304 -5V
FLAG 64 -368 +30V
FLAG -384 80 0
FLAG -368 -16 stim
FLAG 144 -192 jLead
FLAG 144 -160 jCloop
FLAG 80 352 jLead
FLAG 320 160 jCloop
FLAG 240 96 out
FLAG 80 80 0
FLAG 80 736 jLead
FLAG 320 544 jCloop
FLAG 240 480 out2
FLAG 80 464 0
FLAG -80 592 stim
IOPIN -80 592 In
DATAFLAG 64 352 ""
DATAFLAG 304 160 ""
DATAFLAG 64 736 ""
DATAFLAG 304 544 ""
SYMBOL res -80 192 M90
WINDOW 0 7 56 VBottom 2
WINDOW 3 25 56 VTop 2
SYMATTR InstName R2
SYMATTR Value 3k3
SYMBOL res 96 192 M90
WINDOW 0 7 56 VBottom 2
WINDOW 3 25 56 VTop 2
SYMATTR InstName R3
SYMATTR Value 3k3
SYMBOL cap 112 304 R270
WINDOW 0 32 32 VTop 2
WINDOW 3 0 32 VBottom 2
SYMATTR InstName C1
SYMATTR Value {Clead}
SYMBOL res 160 272 M90
WINDOW 0 7 56 VBottom 2
WINDOW 3 25 56 VTop 2
SYMATTR InstName R5
SYMATTR Value 10m
SYMBOL source-Vmarker 48 -368 R0
SYMATTR Value V=30V
SYMATTR InstName U2
SYMATTR ModelFile EIT_sub\vdc_single.sub
SYMBOL source-Vmarker 192 -368 M0
SYMATTR Value V=-30V
SYMATTR InstName U3
SYMATTR ModelFile EIT_sub\vdc_single.sub
SYMBOL source-Vmarker 48 -336 R0
SYMATTR Value V=+12V
SYMATTR InstName U4
SYMATTR ModelFile EIT_sub\vdc_single.sub
SYMBOL source-Vmarker 192 -336 M0
SYMATTR Value V=-12V
SYMATTR InstName U5
SYMATTR ModelFile EIT_sub\vdc_single.sub
SYMBOL source-Vmarker 192 -304 R180
SYMATTR Value V=-5V
SYMATTR InstName U6
SYMATTR ModelFile EIT_sub\vdc_single.sub
SYMBOL source-Vmarker 48 -304 R0
SYMATTR Value V=+5V
SYMATTR InstName U7
SYMATTR ModelFile EIT_sub\vdc_single.sub
SYMBOL source-V -384 -16 R0
WINDOW 3 28 50 Left 2
WINDOW 123 28 72 Left 2
WINDOW 39 0 0 Left 2
SYMATTR Value 0
SYMATTR Value2 AC 1
SYMATTR InstName V1
SYMBOL MDB_sym\\source-Vmarker 96 -192 R0
SYMATTR Value V={jLead}
SYMATTR InstName U9
SYMBOL MDB_sym\\source-Vmarker 96 -160 R0
SYMATTR Value V={jLoop}
SYMATTR InstName U10
SYMBOL SBORKA\\Switch\\jumpernew 80 288 M180
SYMATTR InstName U8
SYMBOL SBORKA\\Switch\\jumpernew 256 160 R90
SYMATTR InstName U11
SYMBOL EIT_Semiconductors\\op_3 144 480 M180
SYMATTR InstName U12
SYMATTR Value Vp=12 Vm=-12 Ilim=20m
SYMBOL res -80 576 M90
WINDOW 0 7 56 VBottom 2
WINDOW 3 25 56 VTop 2
SYMATTR InstName R1
SYMATTR Value 3k3
SYMBOL res 96 576 M90
WINDOW 0 7 56 VBottom 2
WINDOW 3 25 56 VTop 2
SYMATTR InstName R4
SYMATTR Value 3k3
SYMBOL cap 112 688 R270
WINDOW 0 32 32 VTop 2
WINDOW 3 0 32 VBottom 2
SYMATTR InstName C2
SYMATTR Value {Clead}
SYMBOL res 160 656 M90
WINDOW 0 7 56 VBottom 2
WINDOW 3 25 56 VTop 2
SYMATTR InstName R6
SYMATTR Value 10m
SYMBOL SBORKA\\Switch\\jumpernew 80 672 M180
SYMATTR InstName U14
SYMBOL SBORKA\\Switch\\jumpernew 256 544 R90
SYMATTR InstName U15
SYMBOL Opamps\\LT1028 144 160 M180
WINDOW 0 17 12 Left 2
WINDOW 3 19 127 Left 2
SYMATTR InstName U1
TEXT -290 -44 Left 2 !.ac oct 100 1 50meg
TEXT -288 -216 Left 2 !.param TRY=1\n+ jLead = {OFF}\n+ jLoop = {OFF}\n+ ON = 1\n+ OFF = 0\n+ Clead = 1p
TEXT -400 368 Left 2 ;.step param jLead list 0 1
TEXT -400 392 Left 2 ;.step param jLoop list 0 1
TEXT -280 -8 Left 2 !.op
TEXT 352 -104 Left 2 ;.model 1014 ako:LT1014\n.model 1028 ako:LT1028
TEXT 352 40 Left 2 ;.step param LTx list 1001 1014 1028
