Version 4
SHEET 1 880 680
WIRE -48 -656 -64 -656
WIRE -160 -576 -176 -576
WIRE -64 -576 -64 -656
WIRE -64 -576 -80 -576
WIRE -544 -560 -544 -592
WIRE -64 -528 -64 -576
WIRE -432 -512 -432 -560
WIRE -176 -480 -176 -576
WIRE -128 -480 -176 -480
WIRE -544 -464 -544 -480
WIRE -496 -464 -544 -464
WIRE -544 -416 -544 -464
WIRE -176 -416 -176 -480
WIRE -432 -384 -432 -416
WIRE -432 -384 -512 -384
WIRE -64 -384 -64 -432
WIRE -64 -384 -144 -384
WIRE -432 -352 -432 -384
WIRE -64 -352 -64 -384
WIRE -544 -256 -544 -352
WIRE -480 -256 -544 -256
WIRE -432 -256 -432 -272
WIRE -432 -256 -480 -256
WIRE -176 -240 -176 -352
WIRE -64 -240 -64 -272
WIRE -64 -240 -176 -240
WIRE -944 -208 -1248 -208
WIRE -944 -176 -944 -208
WIRE -64 -160 -64 -240
WIRE -1248 -128 -1248 -208
WIRE -944 -48 -944 -112
WIRE -64 -48 -64 -80
WIRE -1248 48 -1248 -48
WIRE -944 48 -944 16
WIRE -944 48 -1248 48
WIRE -1248 64 -1248 48
WIRE -1248 160 -1248 144
FLAG -48 -656 V+
FLAG -480 -256 V-
FLAG 208 -656 V+
FLAG 208 -592 V-
FLAG -544 -592 0
FLAG -432 -640 V+
FLAG -64 -48 V-
FLAG -1248 160 0
SYMBOL res -528 -576 M0
SYMATTR InstName R1
SYMATTR Value 10k
SYMBOL EIT_Semiconductors\\npn -496 -512 R0
SYMATTR InstName Q1
SYMATTR Value BC550BP
SYMBOL res -448 -368 R0
SYMATTR InstName R2
SYMATTR Value {2.49/2m}
SYMBOL res -448 -656 R0
SYMATTR InstName R3
SYMATTR Value 10
SYMBOL EXTRA\\VolReg\\TL431 -528 -416 M0
SYMATTR InstName U1
SYMBOL npn -128 -528 R0
SYMATTR InstName Q2
SYMATTR Value BC550BP
SYMBOL res -64 -560 M270
WINDOW 0 25 56 VTop 2
WINDOW 3 7 56 VBottom 2
SYMATTR InstName R4
SYMATTR Value 10k
SYMBOL res -80 -368 R0
SYMATTR InstName R5
SYMATTR Value {2.49/2m}
SYMBOL source-Vmarker 208 -656 R0
SYMATTR Value V=20V
SYMATTR InstName U3
SYMBOL source-Vmarker 208 -592 R0
SYMATTR Value V=-20V
SYMATTR InstName U4
SYMBOL res -80 -176 R0
SYMATTR InstName R6
SYMATTR Value 10
SYMBOL diode -960 -176 R0
SYMATTR InstName D1
SYMATTR Value 1N4148
SYMBOL diode -960 -48 R0
SYMATTR InstName D2
SYMATTR Value 1N4148
SYMBOL source-V -1248 -144 R0
WINDOW 123 0 0 Left 2
WINDOW 39 0 0 Left 2
SYMATTR InstName V1
SYMATTR Value 1
SYMBOL res -1264 48 R0
SYMATTR InstName R7
SYMATTR Value 1meg
SYMBOL EXTRA\\VolReg\\TL431 -160 -416 M0
SYMATTR InstName U2
TEXT -296 232 Left 2 !.tran 10m
