Version 4
SHEET 1 968 680
WIRE -2288 -4000 -2304 -4000
WIRE -2272 -4000 -2288 -4000
WIRE -2304 -3984 -2304 -4000
WIRE -4880 -3968 -4912 -3968
WIRE -4848 -3968 -4880 -3968
WIRE -4832 -3952 -4848 -3952
WIRE -4736 -3952 -4752 -3952
WIRE -4224 -3904 -4256 -3904
WIRE -4112 -3904 -4160 -3904
WIRE -4960 -3872 -4976 -3872
WIRE -5264 -3856 -5440 -3856
WIRE -5184 -3856 -5264 -3856
WIRE -5072 -3856 -5104 -3856
WIRE -5008 -3856 -5072 -3856
WIRE -4592 -3856 -4608 -3856
WIRE -4368 -3856 -4400 -3856
WIRE -4336 -3856 -4368 -3856
WIRE -2800 -3856 -2864 -3856
WIRE -2672 -3856 -2800 -3856
WIRE -2544 -3856 -2672 -3856
WIRE -5072 -3840 -5072 -3856
WIRE -4912 -3840 -4944 -3840
WIRE -4848 -3840 -4912 -3840
WIRE -4832 -3840 -4848 -3840
WIRE -4736 -3840 -4736 -3952
WIRE -4736 -3840 -4752 -3840
WIRE -4640 -3840 -4736 -3840
WIRE -2864 -3840 -2864 -3856
WIRE -2800 -3840 -2800 -3856
WIRE -5440 -3824 -5440 -3856
WIRE -5008 -3824 -5024 -3824
WIRE -4528 -3824 -4576 -3824
WIRE -4368 -3824 -4528 -3824
WIRE -4352 -3824 -4368 -3824
WIRE -4256 -3824 -4256 -3904
WIRE -4256 -3824 -4272 -3824
WIRE -4224 -3824 -4256 -3824
WIRE -4112 -3824 -4112 -3904
WIRE -4112 -3824 -4144 -3824
WIRE -4960 -3808 -4976 -3808
WIRE -4848 -3808 -4848 -3840
WIRE -4640 -3808 -4672 -3808
WIRE -4528 -3808 -4528 -3824
WIRE -4736 -3792 -4736 -3840
WIRE -4592 -3792 -4608 -3792
WIRE -5024 -3776 -5024 -3824
WIRE -4912 -3776 -4912 -3840
WIRE -4912 -3776 -5024 -3776
WIRE -2544 -3776 -2544 -3856
WIRE -2544 -3776 -2704 -3776
WIRE -4160 -3760 -4176 -3760
WIRE -4368 -3744 -4400 -3744
WIRE -4336 -3744 -4368 -3744
WIRE -4256 -3744 -4256 -3824
WIRE -4208 -3744 -4256 -3744
WIRE -2544 -3744 -2544 -3776
WIRE -5440 -3728 -5440 -3744
WIRE -4112 -3728 -4112 -3824
WIRE -4112 -3728 -4144 -3728
WIRE -4064 -3728 -4112 -3728
WIRE -2864 -3728 -2864 -3760
WIRE -2800 -3728 -2800 -3760
WIRE -2800 -3728 -2864 -3728
WIRE -2768 -3728 -2800 -3728
WIRE -4672 -3712 -4672 -3808
WIRE -4528 -3712 -4528 -3728
WIRE -4528 -3712 -4672 -3712
WIRE -4368 -3712 -4384 -3712
WIRE -4352 -3712 -4368 -3712
WIRE -4256 -3712 -4272 -3712
WIRE -4208 -3712 -4256 -3712
WIRE -4912 -3696 -5024 -3696
WIRE -4848 -3696 -4848 -3760
WIRE -4848 -3696 -4912 -3696
WIRE -4528 -3696 -4528 -3712
WIRE -4256 -3696 -4256 -3712
WIRE -4160 -3696 -4176 -3696
WIRE -2800 -3696 -2800 -3728
WIRE -5072 -3680 -5104 -3680
WIRE -4736 -3680 -4736 -3712
WIRE -5072 -3664 -5072 -3680
WIRE -4960 -3664 -4976 -3664
WIRE -4384 -3664 -4384 -3712
WIRE -2864 -3664 -2864 -3728
WIRE -2704 -3664 -2704 -3680
WIRE -2640 -3664 -2704 -3664
WIRE -2592 -3664 -2640 -3664
WIRE -5024 -3648 -5024 -3696
WIRE -5008 -3648 -5024 -3648
WIRE -4912 -3632 -4912 -3696
WIRE -4912 -3632 -4944 -3632
WIRE -5008 -3616 -5040 -3616
WIRE -4960 -3600 -4976 -3600
WIRE -4256 -3600 -4256 -3616
WIRE -2800 -3600 -2800 -3616
WIRE -2640 -3568 -2640 -3584
WIRE -2544 -3568 -2544 -3648
WIRE -2544 -3568 -2640 -3568
WIRE -5072 -3552 -5072 -3568
WIRE -5072 -3552 -5104 -3552
WIRE -2544 -3552 -2544 -3568
WIRE -4384 -3536 -4384 -3632
WIRE -4080 -3536 -4384 -3536
WIRE -3184 -3536 -3200 -3536
WIRE -3104 -3536 -3136 -3536
WIRE -2928 -3536 -3040 -3536
WIRE -2864 -3520 -2864 -3600
WIRE -2800 -3520 -2800 -3536
WIRE -2800 -3520 -2864 -3520
WIRE -3296 -3408 -3344 -3408
WIRE -3184 -3408 -3184 -3536
WIRE -3184 -3408 -3216 -3408
WIRE -3136 -3408 -3136 -3536
WIRE -3136 -3408 -3184 -3408
WIRE -3104 -3408 -3136 -3408
WIRE -2928 -3408 -2928 -3536
WIRE -2928 -3408 -3024 -3408
WIRE -2544 -3408 -2544 -3472
WIRE -2544 -3408 -2928 -3408
WIRE -2416 -3408 -2544 -3408
WIRE -2240 -3408 -2416 -3408
WIRE -4976 -3392 -5072 -3392
WIRE -4816 -3392 -4912 -3392
WIRE -4784 -3392 -4816 -3392
WIRE -4560 -3392 -4656 -3392
WIRE -4368 -3392 -4496 -3392
WIRE -4288 -3360 -4304 -3360
WIRE -4208 -3360 -4224 -3360
WIRE -3008 -3360 -3104 -3360
WIRE -2992 -3360 -3008 -3360
WIRE -2240 -3360 -2240 -3408
WIRE -4848 -3344 -4864 -3344
WIRE -3104 -3344 -3104 -3360
WIRE -3008 -3344 -3008 -3360
WIRE -2544 -3344 -2544 -3408
WIRE -2416 -3344 -2416 -3408
WIRE -5440 -3328 -5472 -3328
WIRE -5424 -3328 -5440 -3328
WIRE -5312 -3328 -5424 -3328
WIRE -5184 -3328 -5248 -3328
WIRE -5168 -3328 -5184 -3328
WIRE -5072 -3328 -5072 -3392
WIRE -5072 -3328 -5088 -3328
WIRE -5056 -3328 -5072 -3328
WIRE -4960 -3328 -4976 -3328
WIRE -4896 -3328 -4960 -3328
WIRE -4432 -3328 -4448 -3328
WIRE -4784 -3312 -4784 -3392
WIRE -4784 -3312 -4832 -3312
WIRE -4752 -3312 -4784 -3312
WIRE -4656 -3312 -4656 -3392
WIRE -4656 -3312 -4672 -3312
WIRE -4640 -3312 -4656 -3312
WIRE -4544 -3312 -4560 -3312
WIRE -4480 -3312 -4544 -3312
WIRE -3632 -3312 -3680 -3312
WIRE -3536 -3312 -3552 -3312
WIRE -3504 -3312 -3536 -3312
WIRE -3408 -3312 -3424 -3312
WIRE -4960 -3296 -4960 -3328
WIRE -4896 -3296 -4912 -3296
WIRE -4368 -3296 -4368 -3392
WIRE -4368 -3296 -4416 -3296
WIRE -4320 -3296 -4368 -3296
WIRE -4288 -3296 -4320 -3296
WIRE -4208 -3296 -4208 -3360
WIRE -4208 -3296 -4224 -3296
WIRE -4112 -3296 -4208 -3296
WIRE -4080 -3296 -4080 -3536
WIRE -4080 -3296 -4112 -3296
WIRE -3184 -3296 -3184 -3408
WIRE -3152 -3296 -3184 -3296
WIRE -3120 -3296 -3152 -3296
WIRE -2384 -3296 -2416 -3296
WIRE -4848 -3280 -4864 -3280
WIRE -4544 -3280 -4544 -3312
WIRE -4480 -3280 -4496 -3280
WIRE -2416 -3280 -2416 -3296
WIRE -5440 -3264 -5440 -3328
WIRE -4432 -3264 -4448 -3264
WIRE -3456 -3264 -3472 -3264
WIRE -3248 -3264 -3264 -3264
WIRE -2864 -3264 -2880 -3264
WIRE -2848 -3264 -2864 -3264
WIRE -2800 -3264 -2800 -3520
WIRE -2800 -3264 -2848 -3264
WIRE -2240 -3264 -2240 -3312
WIRE -4912 -3248 -4912 -3296
WIRE -4784 -3248 -4784 -3312
WIRE -4784 -3248 -4912 -3248
WIRE -3536 -3248 -3536 -3312
WIRE -3504 -3248 -3536 -3248
WIRE -3296 -3248 -3360 -3248
WIRE -4496 -3232 -4496 -3280
WIRE -4368 -3232 -4368 -3296
WIRE -4368 -3232 -4496 -3232
WIRE -4288 -3232 -4304 -3232
WIRE -4208 -3232 -4208 -3296
WIRE -4208 -3232 -4224 -3232
WIRE -3360 -3232 -3360 -3248
WIRE -3360 -3232 -3440 -3232
WIRE -3168 -3232 -3232 -3232
WIRE -3152 -3232 -3168 -3232
WIRE -3120 -3232 -3152 -3232
WIRE -4960 -3216 -4960 -3232
WIRE -3504 -3216 -3536 -3216
WIRE -3296 -3216 -3328 -3216
WIRE -2800 -3216 -2800 -3264
WIRE -2544 -3216 -2544 -3264
WIRE -2544 -3216 -2640 -3216
WIRE -4544 -3200 -4544 -3216
WIRE -3456 -3200 -3472 -3200
WIRE -3248 -3200 -3264 -3200
WIRE -3040 -3184 -3056 -3184
WIRE -2640 -3184 -2640 -3216
WIRE -2416 -3184 -2416 -3200
WIRE -3104 -3168 -3104 -3184
WIRE -3088 -3168 -3104 -3168
WIRE -2864 -3152 -2864 -3264
WIRE -2240 -3152 -2240 -3184
WIRE -5440 -3136 -5440 -3184
WIRE -5440 -3136 -5616 -3136
WIRE -3648 -3136 -3696 -3136
WIRE -3632 -3136 -3648 -3136
WIRE -3536 -3136 -3536 -3216
WIRE -3536 -3136 -3552 -3136
WIRE -3488 -3136 -3536 -3136
WIRE -3360 -3136 -3360 -3232
WIRE -3360 -3136 -3408 -3136
WIRE -3328 -3136 -3328 -3216
WIRE -3296 -3136 -3328 -3136
WIRE -3168 -3136 -3168 -3232
WIRE -3168 -3136 -3216 -3136
WIRE -2800 -3136 -2800 -3152
WIRE -5616 -3120 -5616 -3136
WIRE -3696 -3120 -3696 -3136
WIRE -3648 -3120 -3648 -3136
WIRE -2544 -3104 -2544 -3216
WIRE -2416 -3104 -2416 -3120
WIRE -3296 -3088 -3296 -3136
WIRE -2640 -3088 -2640 -3104
WIRE -2640 -3088 -2704 -3088
WIRE -2592 -3088 -2640 -3088
WIRE -2704 -3072 -2704 -3088
WIRE -3696 -3056 -3696 -3072
WIRE -5616 -3024 -5616 -3040
WIRE -3536 -3024 -3536 -3136
WIRE -3360 -3024 -3360 -3136
WIRE -3360 -3024 -3392 -3024
WIRE -2864 -3024 -2864 -3088
WIRE -2800 -3024 -2800 -3056
WIRE -2800 -3024 -2864 -3024
WIRE -2768 -3024 -2800 -3024
WIRE -3296 -2992 -3296 -3008
WIRE -2864 -2992 -2864 -3024
WIRE -2800 -2992 -2800 -3024
WIRE -2544 -2976 -2544 -3008
WIRE -2544 -2976 -2704 -2976
WIRE -5616 -2928 -5632 -2928
WIRE -5600 -2928 -5616 -2928
WIRE -5424 -2928 -5440 -2928
WIRE -5408 -2928 -5424 -2928
WIRE -5632 -2912 -5632 -2928
WIRE -5440 -2912 -5440 -2928
WIRE -2864 -2896 -2864 -2912
WIRE -2800 -2896 -2800 -2912
WIRE -2800 -2896 -2864 -2896
WIRE -2688 -2896 -2800 -2896
WIRE -2544 -2896 -2544 -2976
WIRE -2544 -2896 -2688 -2896
WIRE -4720 -2880 -4752 -2880
WIRE -4672 -2880 -4720 -2880
WIRE -4576 -2880 -4592 -2880
WIRE -4448 -2864 -4464 -2864
WIRE -4352 -2864 -4368 -2864
WIRE -4336 -2864 -4352 -2864
WIRE -4256 -2864 -4272 -2864
WIRE -4928 -2848 -4928 -2864
WIRE -4816 -2848 -4816 -2864
WIRE -2432 -2848 -2464 -2848
WIRE -2320 -2848 -2352 -2848
WIRE -2240 -2848 -2240 -3072
WIRE -2240 -2848 -2256 -2848
WIRE -3216 -2832 -3296 -2832
WIRE -3056 -2832 -3136 -2832
WIRE -5632 -2816 -5632 -2832
WIRE -5440 -2816 -5440 -2832
WIRE -4352 -2816 -4352 -2864
WIRE -4528 -2800 -4560 -2800
WIRE -4496 -2800 -4528 -2800
WIRE -2640 -2784 -2688 -2784
WIRE -2464 -2784 -2464 -2848
WIRE -2464 -2784 -2560 -2784
WIRE -2432 -2784 -2464 -2784
WIRE -2288 -2784 -2352 -2784
WIRE -2240 -2784 -2240 -2848
WIRE -2240 -2784 -2288 -2784
WIRE -4928 -2768 -4928 -2784
WIRE -4928 -2768 -4992 -2768
WIRE -4816 -2768 -4816 -2784
WIRE -4816 -2768 -4928 -2768
WIRE -4528 -2768 -4576 -2768
WIRE -4464 -2768 -4528 -2768
WIRE -3136 -2768 -3152 -2768
WIRE -4528 -2752 -4528 -2768
WIRE -2544 -2736 -2560 -2736
WIRE -5072 -2720 -5120 -2720
WIRE -5024 -2720 -5072 -2720
WIRE -4928 -2720 -4928 -2768
WIRE -4816 -2720 -4816 -2768
WIRE -4656 -2720 -4656 -2768
WIRE -3056 -2720 -3056 -2832
WIRE -3056 -2720 -3104 -2720
WIRE -4656 -2704 -4656 -2720
WIRE -3648 -2704 -3648 -3072
WIRE -2240 -2704 -2240 -2784
WIRE -3648 -2688 -3648 -2704
WIRE -3424 -2688 -3648 -2688
WIRE -3328 -2688 -3376 -2688
WIRE -3296 -2688 -3296 -2832
WIRE -3296 -2688 -3328 -2688
WIRE -3248 -2688 -3296 -2688
WIRE -2464 -2688 -2464 -2784
WIRE -2464 -2688 -2512 -2688
WIRE -5104 -2656 -5120 -2656
WIRE -5024 -2656 -5024 -2720
WIRE -5024 -2656 -5040 -2656
WIRE -5008 -2656 -5024 -2656
WIRE -4528 -2656 -4528 -2672
WIRE -4464 -2656 -4464 -2704
WIRE -4464 -2656 -4528 -2656
WIRE -3056 -2656 -3104 -2656
WIRE -2880 -2656 -3056 -2656
WIRE -2720 -2656 -2800 -2656
WIRE -2688 -2656 -2688 -2784
WIRE -2688 -2656 -2720 -2656
WIRE -2656 -2656 -2688 -2656
WIRE -4528 -2640 -4528 -2656
WIRE -4352 -2640 -4352 -2656
WIRE -2496 -2624 -2512 -2624
WIRE -2400 -2624 -2416 -2624
WIRE -3184 -2608 -3200 -2608
WIRE -3136 -2608 -3152 -2608
WIRE -1920 -2592 -1936 -2592
WIRE -1792 -2592 -1808 -2592
WIRE -2592 -2576 -2608 -2576
WIRE -2544 -2576 -2560 -2576
WIRE -5104 -2560 -5120 -2560
WIRE -5024 -2560 -5024 -2656
WIRE -5024 -2560 -5040 -2560
WIRE -5008 -2560 -5024 -2560
WIRE -1920 -2560 -1936 -2560
WIRE -1792 -2560 -1808 -2560
WIRE -4528 -2544 -4528 -2560
WIRE -2928 -2544 -2928 -2560
WIRE -2240 -2544 -2240 -2624
WIRE -1920 -2528 -1936 -2528
WIRE -1792 -2528 -1808 -2528
WIRE -4416 -2512 -4432 -2512
WIRE -4240 -2512 -4256 -2512
WIRE -3648 -2512 -3648 -2688
WIRE -3056 -2512 -3056 -2656
WIRE -3056 -2512 -3648 -2512
WIRE -4928 -2496 -5024 -2496
WIRE -4416 -2480 -4432 -2480
WIRE -4240 -2480 -4256 -2480
WIRE -1872 -2448 -1888 -2448
WIRE -1824 -2448 -1872 -2448
WIRE -1808 -2448 -1824 -2448
WIRE -5520 -2432 -5584 -2432
WIRE -5472 -2432 -5520 -2432
WIRE -5440 -2432 -5472 -2432
WIRE -5136 -2432 -5360 -2432
WIRE -4864 -2432 -5136 -2432
WIRE -4848 -2432 -4864 -2432
WIRE -4752 -2432 -4752 -2496
WIRE -4752 -2432 -4768 -2432
WIRE -4736 -2432 -4752 -2432
WIRE -4656 -2432 -4656 -2496
WIRE -4640 -2432 -4656 -2432
WIRE -4144 -2432 -4560 -2432
WIRE -4864 -2416 -4864 -2432
WIRE -5520 -2400 -5520 -2432
WIRE -5472 -2400 -5472 -2432
WIRE -5520 -2384 -5520 -2400
WIRE -4752 -2352 -4752 -2432
WIRE -4736 -2352 -4752 -2352
WIRE -4656 -2352 -4656 -2432
WIRE -4656 -2352 -4672 -2352
WIRE -4864 -2336 -4864 -2352
WIRE -1856 -2336 -1888 -2336
WIRE -1824 -2336 -1856 -2336
WIRE -2288 -2320 -2304 -2320
WIRE -2112 -2320 -2128 -2320
WIRE -5520 -2288 -5520 -2336
WIRE -5472 -2288 -5472 -2320
WIRE -1856 -2288 -1888 -2288
WIRE -1824 -2288 -1856 -2288
WIRE -2288 -2272 -2288 -2320
WIRE -2256 -2272 -2256 -2320
WIRE -2224 -2272 -2224 -2320
WIRE -2192 -2272 -2192 -2320
WIRE -2160 -2272 -2160 -2320
WIRE -2128 -2272 -2128 -2320
WIRE -2288 -2256 -2288 -2272
WIRE -2256 -2256 -2256 -2272
WIRE -2224 -2256 -2224 -2272
WIRE -2192 -2256 -2192 -2272
WIRE -2160 -2256 -2160 -2272
WIRE -2128 -2256 -2128 -2272
FLAG -1808 -2592 -30V
FLAG -1920 -2560 +12V
FLAG -1808 -2560 -12V
FLAG -1824 -2288 Aref_2
FLAG -1824 -2336 Aref
FLAG -1920 -2528 +5V
FLAG -1808 -2528 -5V
FLAG -2304 -3904 0
FLAG -2288 -4000 stim
FLAG -2416 -3104 0
FLAG -3408 -3312 0
FLAG -2240 -2544 0
FLAG -2928 -2544 0
FLAG -3456 -3264 -12V
FLAG -3456 -3200 +12V
FLAG -3344 -3408 0
FLAG -2400 -2624 0
FLAG -3040 -3184 0
FLAG -2560 -2736 +5V
FLAG -3152 -2768 +5V
FLAG -2608 -2576 +5V
FLAG -2560 -2576 -5V
FLAG -3200 -2608 +5V
FLAG -3152 -2608 -5V
FLAG -2992 -3360 +30V
FLAG -3088 -3168 -30V
FLAG -2672 -3856 +30V
FLAG -2688 -2896 -30V
FLAG -2720 -2656 mon
FLAG -3328 -2688 fmon
FLAG -3696 -3056 stim
IOPIN -3696 -3056 In
FLAG -3648 -2704 ym
FLAG -5440 -2816 0
FLAG -4256 -3600 0
FLAG -4064 -3728 pwrCmd
IOPIN -4064 -3728 Out
FLAG -4368 -3712 ue2
FLAG -4528 -3616 0
FLAG -4736 -3680 0
FLAG -5440 -3728 0
FLAG -4368 -3824 ue1
FLAG -5104 -3680 +12V
FLAG -4816 -2496 0
FLAG -5120 -2656 0
FLAG -5120 -2560 0
FLAG -4864 -2336 0
FLAG -4816 -2864 0
FLAG -4928 -2864 0
FLAG -4240 -2512 cRg
FLAG -4416 -2512 cRf_sar
FLAG -4416 -2480 cRb
FLAG -4992 -2768 +5V
FLAG -5024 -2496 +5V
FLAG -4352 -2640 0
FLAG -4528 -2544 0
FLAG -4256 -2864 0
FLAG -4144 -2432 posDemod
IOPIN -4144 -2432 In
FLAG -5072 -3776 0
FLAG -5264 -3856 DacEx
FLAG -4848 -3840 LTo
FLAG -5520 -2288 0
FLAG -5584 -2432 ADC_quant
IOPIN -5584 -2432 Out
FLAG -5136 -2432 posADC
FLAG -4848 -3952 Aref
IOPIN -4848 -3952 In
FLAG -5120 -2720 pump
IOPIN -5120 -2720 BiDir
FLAG -5104 -3552 -12V
FLAG -5424 -3328 stimDAC
FLAG -4960 -3808 +12V
FLAG -4960 -3872 -12V
FLAG -4592 -3792 +12V
FLAG -4592 -3856 -12V
FLAG -4960 -3664 +12V
FLAG -4960 -3600 -12V
FLAG -4160 -3760 +12V
FLAG -4160 -3696 -12V
FLAG -5472 -2288 0
FLAG -4464 -2864 +5V
FLAG -4528 -2768 refADC
FLAG -4848 -3280 +12V
FLAG -4848 -3344 -12V
FLAG -4960 -3216 0
FLAG -4432 -3264 +12V
FLAG -4432 -3328 -12V
FLAG -4544 -3200 0
FLAG -5184 -3328 DACx
FLAG -4304 -3360 DACx
FLAG -4816 -3392 rFil1
FLAG -4320 -3296 rFil2
FLAG -4304 -3232 rFil1
FLAG -4112 -3296 y_rFil
FLAG -4240 -2480 cRf_ref
FLAG -5632 -2816 0
FLAG -5616 -2928 g1
FLAG -5424 -2928 g2
FLAG -5616 -3024 0
FLAG -4720 -2880 Aref_2
FLAG -4576 -2880 0
FLAG -3152 -3232 hv+
FLAG -3152 -3296 hv-
FLAG -2848 -3264 hvy
FLAG -1872 -2448 vKp
FLAG -2192 -2320 v1v
FLAG -2288 -2784 shunt
FLAG -3344 -3536 0
FLAG -2416 -3408 load
FLAG -1920 -2592 +30V
FLAG -2384 -3344 0
FLAG -2928 -2624 0
FLAG -3680 -3312 0
FLAG -3248 -3264 -12V
FLAG -3248 -3200 +12V
FLAG -3296 -2992 0
DATAFLAG -1856 -2336 ""
DATAFLAG -1856 -2288 ""
DATAFLAG -2256 -2272 "round(100*$)/100"
DATAFLAG -2288 -2272 "round(100*$)/100"
DATAFLAG -4880 -3968 "V(Aref)"
DATAFLAG -4848 -3696 "round(100*$)/100"
DATAFLAG -5072 -2720 "round(100*$)/100"
DATAFLAG -4528 -2800 "round(V(refADC)*100)/100"
DATAFLAG -4368 -3856 "round(100*V(ue1))/100"
DATAFLAG -4368 -3744 "round(100*V(ue1))/100"
DATAFLAG -2224 -2272 "round(100*$)/100"
DATAFLAG -2192 -2272 "round(100*$)/100"
DATAFLAG -2160 -2272 "round(100*$)/100"
DATAFLAG -2128 -2272 "round(100*$)/100"
DATAFLAG -1824 -2448 "round(V(vKp)/V(v1v)*100)/100"
SYMBOL source-Vmarker -1936 -2592 R0
SYMATTR Value V=30V
SYMATTR InstName U1
SYMATTR ModelFile EIT_sub\vdc_single.sub
SYMBOL source-Vmarker -1792 -2592 M0
SYMATTR Value V=-30V
SYMATTR InstName U2
SYMATTR ModelFile EIT_sub\vdc_single.sub
SYMBOL source-Vmarker -1936 -2560 R0
SYMATTR Value V=+12V
SYMATTR InstName U3
SYMATTR ModelFile EIT_sub\vdc_single.sub
SYMBOL source-Vmarker -1792 -2560 M0
SYMATTR Value V=-12V
SYMATTR InstName U4
SYMATTR ModelFile EIT_sub\vdc_single.sub
SYMBOL source-Vmarker -1792 -2528 R180
SYMATTR Value V=-5V
SYMATTR InstName U5
SYMATTR ModelFile EIT_sub\vdc_single.sub
SYMBOL source-Vmarker -1888 -2288 R0
WINDOW 3 -11 -1 Right 2
SYMATTR Value V={Vref/2}
SYMATTR InstName U6
SYMATTR ModelFile EIT_sub\vdc_single.sub
SYMBOL source-Vmarker -1888 -2336 R0
WINDOW 3 -16 -1 Right 2
SYMATTR Value V={Vref}
SYMATTR InstName U7
SYMATTR ModelFile EIT_sub\vdc_single.sub
SYMBOL source-Vmarker -1936 -2528 R0
SYMATTR Value V=+5V
SYMATTR InstName U8
SYMATTR ModelFile EIT_sub\vdc_single.sub
SYMBOL source-V -2304 -4000 R0
WINDOW 3 28 50 Left 2
WINDOW 123 28 72 Left 2
WINDOW 39 0 0 Left 2
SYMATTR Value SINE(0 2 250 0)
SYMATTR Value2 AC 1
SYMATTR InstName V1
SYMBOL res -2256 -3168 R0
WINDOW 0 35 39 Left 2
WINDOW 3 37 62 Left 2
SYMATTR InstName R1
SYMATTR Value 3.54
SYMBOL ind -2256 -3280 R0
WINDOW 0 41 37 Left 2
WINDOW 3 37 66 Left 2
SYMATTR InstName L1
SYMATTR Value {Lc}
SYMBOL res -2432 -3296 R0
SYMATTR InstName R2
SYMATTR Value 100
SYMBOL cap -2432 -3184 R0
SYMATTR InstName C1
SYMATTR Value 470n
SYMBOL res -3648 -3328 M90
WINDOW 0 7 56 VBottom 2
WINDOW 3 25 56 VTop 2
SYMATTR InstName R3
SYMATTR Value 3k3
SYMBOL res -3312 -3424 M90
WINDOW 0 7 56 VBottom 2
WINDOW 3 25 56 VTop 2
SYMATTR InstName R4
SYMATTR Value 5k1
SYMBOL EIT_Semiconductors\\npn -2768 -3776 R0
SYMATTR InstName Q1
SYMATTR Value FMMT624
SYMBOL EIT_Semiconductors\\pnp -2768 -2976 M180
WINDOW 3 43 53 Left 2
WINDOW 0 47 34 Left 2
SYMATTR Value FMMT722
SYMATTR InstName Q2
SYMBOL res -2528 -3568 M0
SYMATTR InstName R5
SYMATTR Value .2
SYMBOL res -2528 -3248 R180
WINDOW 0 36 76 Left 2
WINDOW 3 36 40 Left 2
SYMATTR InstName R6
SYMATTR Value .2
SYMBOL res -2256 -2720 R0
WINDOW 0 56 38 Left 2
WINDOW 3 56 65 Left 2
SYMATTR InstName Rsh
SYMATTR Value .01
SYMBOL res -2656 -2768 R270
WINDOW 0 32 56 VTop 2
WINDOW 3 0 56 VBottom 2
SYMATTR InstName R8
SYMATTR Value 680
SYMBOL res -2448 -2768 R270
WINDOW 0 25 56 VTop 2
WINDOW 3 7 56 VBottom 2
SYMATTR InstName R9
SYMATTR Value 22
SYMBOL res -3232 -2816 R270
WINDOW 0 -17 62 VTop 2
WINDOW 3 51 62 VBottom 2
SYMATTR InstName R10
SYMATTR Value 10
SYMBOL res -2896 -2640 R270
WINDOW 0 32 56 VTop 2
WINDOW 3 0 56 VBottom 2
SYMATTR InstName R11
SYMATTR Value 470
SYMBOL res -3120 -3392 R270
WINDOW 0 25 56 VTop 2
WINDOW 3 7 56 VBottom 2
SYMATTR InstName R13
SYMATTR Value {Rf}
SYMBOL res -2816 -3712 R0
WINDOW 0 31 60 Left 2
WINDOW 3 31 82 Left 2
SYMATTR InstName R14
SYMATTR Value {Rdi}
SYMBOL res -2816 -3152 R0
WINDOW 3 36 62 Left 2
SYMATTR Value {Rdi}
SYMATTR InstName R15
SYMBOL source-I -2800 -2912 R180
WINDOW 0 -49 42 Left 2
WINDOW 3 -60 18 Left 2
WINDOW 123 0 0 Left 2
WINDOW 39 47 13 Left 2
SYMATTR InstName I1
SYMATTR Value {Iq}
SYMBOL diode -2816 -3600 R0
WINDOW 3 39 39 Left 2
WINDOW 0 -26 33 Left 2
SYMATTR Value 1N4148
SYMATTR InstName D1
SYMBOL diode -2816 -3216 R0
WINDOW 3 38 23 Left 2
WINDOW 0 43 43 Left 2
SYMATTR Value 1N4148
SYMATTR InstName D2
SYMBOL res -3648 -3152 M90
WINDOW 0 7 56 VBottom 2
WINDOW 3 25 56 VTop 2
SYMATTR InstName R16
SYMATTR Value 3k3
SYMBOL res -3504 -3152 M90
WINDOW 0 7 56 VBottom 2
WINDOW 3 25 56 VTop 2
SYMATTR InstName R17
SYMATTR Value 3k3
SYMBOL res -3520 -3328 M90
WINDOW 0 7 56 VBottom 2
WINDOW 3 25 56 VTop 2
SYMATTR InstName R18
SYMATTR Value 3k3
SYMBOL Opamps\\LTC2050 -3136 -2688 M0
WINDOW 3 41 -53 Left 2
WINDOW 0 56 45 Left 2
SYMATTR InstName U9
SYMBOL Opamps\\LTC2050 -2544 -2656 M0
WINDOW 3 43 -54 Left 2
WINDOW 0 64 41 Left 2
SYMATTR InstName U10
SYMBOL cap -2944 -2624 R0
WINDOW 3 -34 139 Left 2
SYMATTR Value {1/(2*pi*470*fg_mon)}
SYMATTR InstName C4
SYMBOL res -2512 -2640 M90
WINDOW 0 7 56 VBottom 2
WINDOW 3 25 56 VTop 2
SYMATTR InstName R19
SYMATTR Value 170
SYMBOL Opamps\\LTC6090 -3056 -3264 R0
WINDOW 0 32 47 Left 2
WINDOW 3 -49 124 Left 2
SYMATTR InstName U11
SYMBOL source-Vmarker -2112 -2320 M0
SYMATTR InstName U13
SYMATTR ModelFile EIT_sub\vdc_single.sub
SYMBOL source-Vmarker -2304 -2320 R0
SYMATTR Value V=-5V
SYMATTR InstName U14
SYMATTR ModelFile EIT_sub\vdc_single.sub
SYMBOL MDB_sym\\isoR -2144 -2320 M90
WINDOW 0 -4 0 Invisible 2
SYMATTR InstName R21
SYMATTR Value 1k
SYMBOL MDB_sym\\isoR -2176 -2320 M90
WINDOW 0 -4 0 Invisible 2
SYMATTR InstName R22
SYMATTR Value 1k
SYMBOL MDB_sym\\isoR -2208 -2320 M90
WINDOW 0 -4 0 Invisible 2
SYMATTR InstName R23
SYMATTR Value 1k
SYMBOL MDB_sym\\isoR -2240 -2320 M90
WINDOW 0 -4 0 Invisible 2
SYMATTR InstName R24
SYMATTR Value 1k
SYMBOL MDB_sym\\isoR -2272 -2320 M90
WINDOW 0 -4 0 Invisible 2
SYMATTR InstName R25
SYMATTR Value 1k
SYMBOL res -2656 -3680 R0
WINDOW 0 39 53 Left 2
SYMATTR InstName R26
SYMATTR Value {Rbias}
SYMBOL res -2656 -3200 R0
WINDOW 3 33 66 Left 2
SYMATTR Value {Rbias}
SYMATTR InstName R27
SYMBOL source-V -5440 -2928 M0
WINDOW 123 28 52 Left 2
WINDOW 39 0 0 Left 2
WINDOW 3 -52 173 Left 2
SYMATTR Value2 AC 1
SYMATTR Value SINE(0 1 100 0 0 0 4)
SYMATTR InstName V2
SYMBOL res -4368 -3808 R270
WINDOW 0 25 56 VTop 2
WINDOW 3 7 56 VBottom 2
SYMATTR InstName R29
SYMATTR Value {R1}
SYMBOL res -4368 -3696 R270
WINDOW 0 25 56 VTop 2
WINDOW 3 7 56 VBottom 2
SYMATTR InstName R30
SYMATTR Value {R3}
SYMBOL res -4272 -3712 R0
SYMATTR InstName R31
SYMATTR Value {R4}
SYMBOL res -4240 -3808 R270
WINDOW 0 25 56 VTop 2
WINDOW 3 7 56 VBottom 2
SYMATTR InstName R32
SYMATTR Value {R2}
SYMBOL res -4544 -3824 R0
SYMATTR InstName R33
SYMATTR Value 22k
SYMBOL res -4544 -3712 R0
SYMATTR InstName R34
SYMATTR Value 22k
SYMBOL source-V -5440 -3840 M0
WINDOW 123 0 0 Left 2
WINDOW 39 0 0 Left 2
SYMATTR InstName V3
SYMATTR Value {digOffs}
SYMBOL res -4848 -3968 M90
WINDOW 0 0 56 VBottom 2
WINDOW 3 32 56 VTop 2
SYMATTR InstName R35
SYMATTR Value {R4b}
SYMBOL res -4848 -3856 M90
WINDOW 0 0 56 VBottom 2
WINDOW 3 32 56 VTop 2
SYMATTR InstName R36
SYMATTR Value {R9}
SYMBOL res -4720 -3808 M0
WINDOW 3 33 72 Left 2
WINDOW 0 35 48 Left 2
SYMATTR Value {R10}
SYMATTR InstName R37
SYMBOL Opamps\\LTC6360 -4816 -2608 M0
SYMATTR InstName U15
SYMBOL cap -5104 -2576 M90
WINDOW 0 0 32 VBottom 2
WINDOW 3 32 32 VTop 2
SYMATTR InstName C5
SYMATTR Value 1µ
SYMBOL cap -5040 -2640 M270
WINDOW 0 32 32 VTop 2
WINDOW 3 0 32 VBottom 2
SYMATTR InstName C6
SYMATTR Value .2µ
SYMBOL res -4752 -2416 M270
WINDOW 0 32 56 VTop 2
WINDOW 3 0 56 VBottom 2
SYMATTR InstName R38
SYMATTR Value 10
SYMBOL cap -4848 -2416 M0
SYMATTR InstName C7
SYMATTR Value 330p
SYMBOL cap -4912 -2848 M0
SYMATTR InstName C8
SYMATTR Value 0.1µ
SYMBOL cap -4800 -2848 M0
SYMATTR InstName C9
SYMATTR Value 10µ
SYMBOL source-Vmarker -4432 -2512 R0
SYMATTR Value V={Rf13}
SYMATTR InstName U16
SYMATTR ModelFile EIT_sub\vdc_single.sub
SYMBOL source-Vmarker -4432 -2480 R0
SYMATTR Value V={Rb}
SYMATTR InstName U17
SYMATTR ModelFile EIT_sub\vdc_single.sub
SYMBOL source-Vmarker -4256 -2512 R0
SYMATTR Value V={Rg}
SYMATTR InstName U18
SYMATTR ModelFile EIT_sub\vdc_single.sub
SYMBOL res -4752 -2416 R270
WINDOW 0 25 56 VTop 2
WINDOW 3 7 56 VBottom 2
SYMATTR InstName R39
SYMATTR Value {Rf13}
SYMBOL res -4544 -2416 M270
WINDOW 0 25 56 VTop 2
WINDOW 3 7 56 VBottom 2
SYMATTR InstName R40
SYMATTR Value {Rg}
SYMBOL res -4560 -2752 M270
WINDOW 0 25 56 VTop 2
WINDOW 3 7 56 VBottom 2
SYMATTR InstName R41
SYMATTR Value {Rb}
SYMBOL Opamps\\LT1058 -4608 -3760 M180
WINDOW 0 -40 0 Left 2
WINDOW 3 -38 -25 Left 2
SYMATTR InstName U19
SYMBOL Opamps\\LT1058 -4176 -3792 R0
WINDOW 0 -2 123 Left 2
WINDOW 3 0 147 Left 2
SYMATTR InstName U20
SYMBOL Opamps\\LT1058 -4976 -3696 R0
WINDOW 0 -31 112 Left 2
WINDOW 3 -28 133 Left 2
SYMATTR InstName U21
SYMBOL cap -4224 -3888 R270
WINDOW 0 32 32 VTop 2
WINDOW 3 0 32 VBottom 2
SYMATTR InstName C10
SYMATTR Value 1p
SYMBOL References\\LT6650 -4352 -2736 M0
WINDOW 0 -56 95 Left 2
SYMATTR InstName U22
SYMBOL res -4512 -2768 M0
WINDOW 0 -33 51 Left 2
WINDOW 3 41 26 VRight 2
SYMATTR InstName R42
SYMATTR Value {Rf26}
SYMBOL res -4544 -2656 R0
WINDOW 0 36 57 Left 2
SYMATTR InstName R43
SYMATTR Value 20k
SYMBOL res -4464 -2848 R270
WINDOW 0 25 56 VTop 2
WINDOW 3 7 56 VBottom 2
SYMATTR InstName R44
SYMATTR Value 1k
SYMBOL cap -4272 -2848 M270
WINDOW 0 32 32 VTop 2
WINDOW 3 0 32 VBottom 2
SYMATTR InstName C11
SYMATTR Value 1µ
SYMBOL EXTRA\\Misc\\pot -5072 -3616 M0
SYMATTR InstName U23
SYMATTR Value R=100k
SYMBOL res -5200 -3872 M90
WINDOW 0 0 56 Invisible 2
WINDOW 3 32 56 VTop 2
SYMATTR InstName R45
SYMATTR Value 1k
SYMBOL cap -5056 -3840 M0
WINDOW 0 24 8 Invisible 2
WINDOW 3 33 54 Left 2
SYMATTR InstName C12
SYMATTR Value 1n
SYMBOL Opamps\\LT1058 -4976 -3776 M180
WINDOW 0 -32 16 Left 2
WINDOW 3 -34 -17 Left 2
SYMATTR InstName U24
SYMBOL res -5344 -2448 R90
WINDOW 0 7 56 VBottom 2
WINDOW 3 25 56 VTop 2
SYMATTR InstName R46
SYMATTR Value 100
SYMBOL cap -5504 -2400 M0
SYMATTR InstName C13
SYMATTR Value 1p
SYMBOL source-V -5632 -2928 M0
WINDOW 123 28 52 Left 2
WINDOW 39 0 0 Left 2
WINDOW 3 79 204 Right 2
SYMATTR Value 0
SYMATTR InstName V4
SYMBOL cap -4672 -2368 R90
WINDOW 0 0 32 VBottom 2
WINDOW 3 32 32 VTop 2
SYMATTR InstName C14
SYMATTR Value {Csar}
SYMBOL res -5424 -3168 R180
WINDOW 0 36 76 Left 2
WINDOW 3 36 40 Left 2
SYMATTR InstName R47
SYMATTR Value 1
SYMBOL Misc\\jumper -5280 -3392 R0
SYMATTR InstName J1
SYMBOL res -5488 -2416 R0
SYMATTR InstName R52
SYMATTR Value 80k
SYMBOL MDB_sym\\isoR -4384 -3648 R0
WINDOW 0 9 10 Invisible 2
SYMATTR InstName R53
SYMATTR Value 1µ
SYMBOL res -5184 -3344 M90
WINDOW 0 0 56 Invisible 2
WINDOW 3 32 56 VTop 2
SYMATTR InstName R54
SYMATTR Value 5k36
SYMBOL res -5072 -3344 M90
WINDOW 0 0 56 Invisible 2
WINDOW 3 32 56 VTop 2
SYMATTR InstName R55
SYMATTR Value 9k09
SYMBOL cap -4976 -3376 R270
WINDOW 0 32 32 Invisible 2
WINDOW 3 0 32 VBottom 2
SYMATTR InstName C19
SYMATTR Value 1n5
SYMBOL cap -4944 -3296 M0
WINDOW 0 24 8 Invisible 2
SYMATTR InstName C20
SYMATTR Value 1n
SYMBOL res -4768 -3328 M90
WINDOW 0 0 56 Invisible 2
WINDOW 3 32 56 VTop 2
SYMATTR InstName R56
SYMATTR Value 2k67
SYMBOL res -4656 -3328 M90
WINDOW 0 0 56 Invisible 2
WINDOW 3 32 56 VTop 2
SYMATTR InstName R57
SYMATTR Value 1k33
SYMBOL cap -4560 -3376 R270
WINDOW 0 32 32 Invisible 2
WINDOW 3 0 32 VBottom 2
SYMATTR InstName C21
SYMATTR Value 6n8
SYMBOL cap -4528 -3280 M0
WINDOW 0 24 8 Invisible 2
SYMATTR InstName C22
SYMATTR Value 1n
SYMBOL Opamps\\LT1058 -4864 -3248 M180
WINDOW 0 -31 -40 Left 2
WINDOW 3 -30 -17 Left 2
SYMATTR InstName U25
SYMBOL Opamps\\LT1058 -4448 -3232 M180
WINDOW 0 -30 -39 Left 2
WINDOW 3 -31 -18 Left 2
SYMATTR InstName U26
SYMBOL Misc\\jumper -4256 -3424 R0
SYMATTR InstName J2
SYMBOL source-Vmarker -4256 -2480 R0
SYMATTR Value V={Rf26}
SYMATTR InstName U27
SYMATTR ModelFile EIT_sub\vdc_single.sub
SYMBOL bv -5616 -3136 R0
WINDOW 3 -41 140 Left 2
SYMATTR Value V=0
SYMATTR InstName B1
SYMBOL res -4576 -2864 M270
WINDOW 0 25 56 VTop 2
WINDOW 3 7 56 VBottom 2
SYMATTR InstName R58
SYMATTR Value {Rb}
SYMBOL source-Vmarker -1888 -2448 R0
SYMATTR Value V={Kp}
SYMATTR InstName U32
SYMATTR ModelFile EIT_sub\vdc_single.sub
SYMBOL cap -3200 -3552 R90
WINDOW 0 0 32 VBottom 2
WINDOW 3 32 32 VTop 2
SYMATTR InstName C24
SYMATTR Value {Clag}
SYMBOL res -3360 -3552 M90
WINDOW 0 7 56 VBottom 2
WINDOW 3 33 50 VTop 2
SYMATTR InstName R62
SYMATTR Value 120
SYMBOL EIT_Semiconductors\\nmos -2592 -3744 R0
WINDOW 0 18 101 Left 2
WINDOW 3 -40 -9 Left 2
SYMATTR InstName Q5
SYMATTR Value IRFP240
SYMBOL EIT_Semiconductors\\pmos -2592 -3008 M180
WINDOW 0 -27 62 Left 2
WINDOW 3 -45 -7 Left 2
SYMATTR InstName Q6
SYMATTR Value IRFP9240
SYMBOL MDB_sym\\jumper -3760 -3104 R270
SYMATTR InstName J6
SYMBOL cap -3536 -3008 R270
WINDOW 0 32 32 VTop 2
WINDOW 3 0 32 VBottom 2
SYMATTR InstName C26
SYMATTR Value {Clead}
SYMBOL MDB_sym\\jumper -2352 -3312 R90
WINDOW 0 -9 100 Bottom 2
SYMATTR InstName J4
SYMBOL MDB_sym\\jumper -2176 -3328 R90
WINDOW 0 -8 99 Bottom 2
SYMATTR InstName J7
SYMBOL res -2864 -3248 M270
WINDOW 3 7 56 VBottom 2
WINDOW 0 25 56 VTop 2
SYMATTR Value 22
SYMATTR InstName R7
SYMBOL res -2848 -3008 M0
SYMATTR InstName R28
SYMATTR Value 100k
SYMBOL cap -2848 -3664 M0
SYMATTR InstName C2
SYMATTR Value 2p2
SYMBOL cap -2848 -3152 M0
SYMATTR InstName C3
SYMATTR Value 2p2
SYMBOL cap -2256 -2832 M270
WINDOW 0 32 32 VTop 2
WINDOW 3 0 32 VBottom 2
SYMATTR InstName C15
SYMATTR Value 47n
SYMBOL res -2336 -2864 R90
WINDOW 0 7 56 VBottom 2
WINDOW 3 25 56 VTop 2
SYMATTR InstName R12
SYMATTR Value 10
SYMBOL cap -3040 -3552 R90
WINDOW 0 0 32 VBottom 2
WINDOW 3 32 32 VTop 2
SYMATTR InstName C16
SYMATTR Value 5p
SYMBOL res -3488 -3040 M90
WINDOW 0 7 56 VBottom 2
WINDOW 3 25 56 VTop 2
SYMATTR InstName R48
SYMATTR Value 10m
SYMBOL Opamps\\LT1028 -3472 -3168 M180
WINDOW 0 -128 43 Left 2
WINDOW 3 -150 87 Left 2
SYMATTR InstName U29
SYMBOL source-I -2800 -3760 R180
WINDOW 0 -49 42 Left 2
WINDOW 3 -60 18 Left 2
WINDOW 123 0 0 Left 2
WINDOW 39 47 13 Left 2
SYMATTR InstName I2
SYMATTR Value {Iq}
SYMBOL res -2848 -3856 M0
SYMATTR InstName R20
SYMATTR Value 100k
SYMBOL Opamps\\LT1028 -3264 -3168 M180
WINDOW 0 -33 12 Left 2
WINDOW 3 -40 121 Left 2
SYMATTR InstName U12
SYMBOL res -3200 -3152 R90
WINDOW 0 0 56 VBottom 2
WINDOW 3 32 56 VTop 2
SYMATTR InstName R49
SYMATTR Value {Kp2*4k7}
SYMBOL res -3312 -3104 R0
SYMATTR InstName R50
SYMATTR Value 4k7
TEXT -1992 -3816 Left 2 !;.tran 0 100m 1m\n;.options plotwinsize=0\n;.tran 0 2.8m 1.9m 1e-7\n.ac oct 100 10 20meg
TEXT -2000 -3648 Left 2 ;.option noopiter\n.options plotwinsize=0\n.four 1k 10 I(L1)
TEXT -2000 -3680 Left 2 ;.dc V1 -1.5 1.5 {.2/1k}
TEXT -1984 -2840 Left 2 !; ---------------------\n;   Power amp\n; ---------------------\n.param Iq = 2m\n.param bias_be1 = 100\n.param bias_b1 = 270\n;;.param Lcoil = 170u
TEXT -1984 -3192 Left 2 !; ---------------------\n;   Compensator\n; ---------------------\n.param Kp = 5\n.param Rf=(kp-1)*5k1
TEXT -1984 -3032 Left 2 !; ---------------------\n;   SOURCES\n; ---------------------\n.param Vsup = 50V\n;(Aref)\n.param Vref = 2.5V
TEXT -1984 -3256 Left 3 ;Parameter\nPwr PCB
TEXT -1944 -2392 Left 3 ;REF2050
TEXT -1992 -3368 Left 2 !.include LM358.lib\n.include OPA404.LIB
TEXT -1992 -3408 Left 3 ;Include
TEXT -2976 -2456 Left 2 !.param fg_mon=250k
TEXT -5656 -3952 Left 5 ;STM32f429i
TEXT -4968 -2200 Left 2 !; ---------------------\n; Power Command\n; ---------------------\n; V(pwrCmd):  \n; -2.5V ... 2.5V\n.param R1=60k\n+ R2=120k\n+ R3=60k\n+ R4=120k
TEXT -4712 -2200 Left 2 !; ---------------------\n; PosDemod\n; ---------------------\n.param dVpos = 20V\n+ dVan = 2.5V\n+ VaMin = 0V \n+ Kpd = dVan / dVpos
TEXT -5184 -2864 Left 3 ;SAR ADC driver\nAng. position
TEXT -5592 -3440 Left 4 ;Lastwiderstand \nmuss >15k sein
TEXT -5176 -3904 Left 1 ;Digital offset for DAC bias\nreconstruction filter