Version 4
SHEET 1 1644 2452
WIRE 400 -2992 384 -2992
WIRE 496 -2992 464 -2992
WIRE 512 -2992 496 -2992
WIRE 608 -2992 592 -2992
WIRE 384 -2928 384 -2992
WIRE -1088 -2912 -1120 -2912
WIRE 496 -2912 496 -2992
WIRE 608 -2912 496 -2912
WIRE -1088 -2864 -1120 -2864
WIRE 384 -2832 384 -2848
WIRE 400 -2704 384 -2704
WIRE 448 -2704 400 -2704
WIRE 384 -2688 384 -2704
WIRE -1312 -2624 -1488 -2624
WIRE -1216 -2624 -1312 -2624
WIRE -1104 -2624 -1136 -2624
WIRE -1040 -2624 -1104 -2624
WIRE -704 -2624 -736 -2624
WIRE -608 -2624 -624 -2624
WIRE -1104 -2608 -1104 -2624
WIRE -944 -2608 -976 -2608
WIRE -880 -2608 -944 -2608
WIRE -1488 -2592 -1488 -2624
WIRE -1040 -2592 -1056 -2592
WIRE -128 -2592 -160 -2592
WIRE -16 -2592 -64 -2592
WIRE 384 -2592 384 -2608
WIRE -1056 -2544 -1056 -2592
WIRE -944 -2544 -944 -2608
WIRE -944 -2544 -1056 -2544
WIRE -480 -2544 -480 -2560
WIRE -880 -2528 -880 -2544
WIRE -784 -2528 -880 -2528
WIRE -704 -2528 -784 -2528
WIRE -608 -2528 -608 -2624
WIRE -608 -2528 -624 -2528
WIRE -512 -2528 -608 -2528
WIRE -880 -2512 -880 -2528
WIRE -416 -2512 -448 -2512
WIRE -288 -2512 -416 -2512
WIRE -256 -2512 -288 -2512
WIRE -160 -2512 -160 -2592
WIRE -160 -2512 -176 -2512
WIRE -128 -2512 -160 -2512
WIRE -16 -2512 -16 -2592
WIRE -16 -2512 -48 -2512
WIRE -1488 -2496 -1488 -2512
WIRE -608 -2496 -608 -2528
WIRE -512 -2496 -544 -2496
WIRE -416 -2496 -416 -2512
WIRE -480 -2464 -480 -2480
WIRE -944 -2448 -1056 -2448
WIRE -880 -2448 -944 -2448
WIRE -1088 -2432 -1088 -2448
WIRE -160 -2416 -160 -2512
WIRE -112 -2416 -160 -2416
WIRE -1088 -2400 -1088 -2432
WIRE -608 -2400 -608 -2416
WIRE -544 -2400 -544 -2496
WIRE -416 -2400 -416 -2416
WIRE -416 -2400 -544 -2400
WIRE -16 -2400 -16 -2512
WIRE -16 -2400 -48 -2400
WIRE 32 -2400 -16 -2400
WIRE -2144 -2384 -2160 -2384
WIRE -2112 -2384 -2144 -2384
WIRE -1984 -2384 -2000 -2384
WIRE -1952 -2384 -1984 -2384
WIRE -1056 -2384 -1056 -2448
WIRE -1024 -2384 -1056 -2384
WIRE -416 -2384 -416 -2400
WIRE -256 -2384 -288 -2384
WIRE -160 -2384 -176 -2384
WIRE -112 -2384 -160 -2384
WIRE -944 -2368 -944 -2448
WIRE -944 -2368 -960 -2368
WIRE -160 -2368 -160 -2384
WIRE -2144 -2352 -2160 -2352
WIRE -2112 -2352 -2144 -2352
WIRE -1024 -2352 -1056 -2352
WIRE -1088 -2288 -1088 -2304
WIRE -288 -2160 -288 -2384
WIRE -288 -2160 -560 -2160
WIRE -1008 -1904 -1104 -1904
WIRE -832 -1904 -944 -1904
WIRE -592 -1904 -688 -1904
WIRE -416 -1904 -528 -1904
WIRE -352 -1872 -384 -1872
WIRE -304 -1872 -352 -1872
WIRE -208 -1872 -240 -1872
WIRE -1376 -1840 -1472 -1840
WIRE -1280 -1840 -1296 -1840
WIRE -1200 -1840 -1280 -1840
WIRE -1104 -1840 -1104 -1904
WIRE -1104 -1840 -1120 -1840
WIRE -1088 -1840 -1104 -1840
WIRE -992 -1840 -1008 -1840
WIRE -928 -1840 -992 -1840
WIRE -1472 -1824 -1472 -1840
WIRE -832 -1824 -832 -1904
WIRE -832 -1824 -864 -1824
WIRE -784 -1824 -832 -1824
WIRE -688 -1824 -688 -1904
WIRE -688 -1824 -704 -1824
WIRE -672 -1824 -688 -1824
WIRE -576 -1824 -592 -1824
WIRE -512 -1824 -576 -1824
WIRE -992 -1808 -992 -1840
WIRE -928 -1808 -944 -1808
WIRE -416 -1808 -416 -1904
WIRE -416 -1808 -448 -1808
WIRE -352 -1808 -416 -1808
WIRE -304 -1808 -352 -1808
WIRE -208 -1808 -208 -1872
WIRE -208 -1808 -240 -1808
WIRE -64 -1808 -64 -1888
WIRE -64 -1808 -208 -1808
WIRE -576 -1792 -576 -1824
WIRE -512 -1792 -528 -1792
WIRE -944 -1760 -944 -1808
WIRE -832 -1760 -832 -1824
WIRE -832 -1760 -944 -1760
WIRE -528 -1744 -528 -1792
WIRE -416 -1744 -416 -1808
WIRE -416 -1744 -528 -1744
WIRE -352 -1744 -384 -1744
WIRE -304 -1744 -352 -1744
WIRE -208 -1744 -208 -1808
WIRE -208 -1744 -240 -1744
WIRE -1472 -1728 -1472 -1744
WIRE -992 -1728 -992 -1744
WIRE -576 -1712 -576 -1728
WIRE -1472 -1632 -1472 -1648
WIRE -480 -1424 -496 -1424
WIRE -352 -1424 -400 -1424
WIRE -320 -1424 -352 -1424
WIRE -784 -1280 -816 -1280
WIRE -784 -1248 -816 -1248
WIRE -336 -1232 -336 -1248
WIRE -784 -1216 -816 -1216
WIRE -976 -1168 -976 -1184
WIRE -864 -1168 -864 -1184
WIRE -608 -1168 -624 -1168
WIRE -496 -1168 -544 -1168
WIRE -480 -1168 -496 -1168
WIRE -336 -1152 -336 -1168
WIRE -320 -1152 -336 -1152
WIRE -224 -1152 -240 -1152
WIRE -336 -1104 -336 -1152
WIRE -1168 -1088 -1184 -1088
WIRE -976 -1088 -976 -1104
WIRE -976 -1088 -1040 -1088
WIRE -864 -1088 -864 -1104
WIRE -864 -1088 -976 -1088
WIRE -832 -1088 -864 -1088
WIRE -784 -1088 -800 -1088
WIRE -1136 -1072 -1136 -1088
WIRE -1072 -1072 -1136 -1072
WIRE -512 -1056 -544 -1056
WIRE -496 -1056 -512 -1056
WIRE -448 -1056 -496 -1056
WIRE -1072 -1040 -1072 -1072
WIRE -1072 -1040 -1104 -1040
WIRE -976 -1040 -976 -1088
WIRE -864 -1040 -864 -1088
WIRE -704 -1040 -704 -1168
WIRE -704 -1024 -704 -1040
WIRE -1152 -976 -1168 -976
WIRE -1072 -976 -1072 -1040
WIRE -1072 -976 -1088 -976
WIRE -1056 -976 -1072 -976
WIRE -512 -960 -512 -976
WIRE -448 -960 -448 -992
WIRE -448 -960 -512 -960
WIRE -512 -944 -512 -960
WIRE -336 -896 -336 -944
WIRE -1152 -880 -1168 -880
WIRE -1072 -880 -1072 -976
WIRE -1072 -880 -1088 -880
WIRE -1056 -880 -1072 -880
WIRE -512 -848 -512 -864
WIRE -976 -816 -1072 -816
WIRE -864 -816 -864 -848
WIRE -1520 -752 -1584 -752
WIRE -1504 -752 -1520 -752
WIRE -1424 -752 -1440 -752
WIRE -1184 -752 -1424 -752
WIRE -912 -752 -1184 -752
WIRE -896 -752 -912 -752
WIRE -800 -752 -800 -816
WIRE -800 -752 -816 -752
WIRE -784 -752 -800 -752
WIRE -704 -752 -704 -816
WIRE -688 -752 -704 -752
WIRE -96 -752 -608 -752
WIRE -1520 -736 -1520 -752
WIRE -912 -736 -912 -752
WIRE -800 -672 -800 -752
WIRE -784 -672 -800 -672
WIRE -704 -672 -704 -752
WIRE -704 -672 -720 -672
WIRE -912 -656 -912 -672
WIRE -1520 -640 -1520 -672
WIRE -560 -496 -560 -512
WIRE -1136 -480 -1136 -512
WIRE -112 -480 -240 -480
WIRE -240 -464 -240 -480
WIRE -560 -384 -560 -416
WIRE -560 -368 -560 -384
WIRE -240 -368 -240 -384
WIRE -1232 -352 -1232 -368
WIRE -1200 -352 -1232 -352
WIRE -432 -320 -512 -320
WIRE -1232 -304 -1232 -352
WIRE -560 -304 -560 -320
WIRE -1136 -256 -1136 -304
WIRE -560 -240 -560 -304
WIRE -1232 -192 -1232 -224
WIRE -1072 64 -1072 48
WIRE -880 64 -880 48
WIRE -1152 112 -1184 112
WIRE -1072 112 -1072 96
WIRE -1072 112 -1088 112
WIRE -992 112 -1072 112
WIRE -880 112 -880 96
WIRE -880 112 -928 112
WIRE -1584 128 -1616 128
WIRE -1504 128 -1520 128
WIRE -1584 160 -1616 160
WIRE -1504 160 -1504 128
WIRE -1504 160 -1520 160
WIRE -384 176 -384 160
WIRE -32 176 -32 160
WIRE -1584 192 -1616 192
WIRE -1504 192 -1504 160
WIRE -1504 192 -1520 192
WIRE -1488 192 -1504 192
WIRE -1392 192 -1408 192
WIRE -1360 192 -1392 192
WIRE -1264 192 -1280 192
WIRE -1168 192 -1184 192
WIRE -1072 192 -1072 112
WIRE -1072 192 -1088 192
WIRE -1008 192 -1072 192
WIRE -880 192 -880 112
WIRE -880 192 -928 192
WIRE -832 192 -880 192
WIRE -752 192 -768 192
WIRE -304 192 -304 160
WIRE -384 208 -384 176
WIRE -1584 224 -1616 224
WIRE -1504 224 -1504 192
WIRE -1504 224 -1520 224
WIRE -1024 240 -1040 240
WIRE -1584 256 -1600 256
WIRE -1504 256 -1504 224
WIRE -1504 256 -1520 256
WIRE -1328 256 -1344 256
WIRE -1024 256 -1024 240
WIRE -1392 272 -1392 192
WIRE -1360 272 -1392 272
WIRE -1264 288 -1296 288
WIRE -304 288 -304 256
WIRE -224 288 -224 256
WIRE -224 288 -304 288
WIRE -32 288 -32 176
WIRE -32 288 -192 288
WIRE -1360 304 -1392 304
WIRE -1072 304 -1072 192
WIRE -1040 304 -1072 304
WIRE -384 304 -384 288
WIRE -384 304 -528 304
WIRE -1328 320 -1344 320
WIRE -32 320 -32 288
WIRE -832 336 -880 336
WIRE -752 336 -768 336
WIRE -384 336 -384 304
WIRE -304 336 -304 288
WIRE -304 336 -384 336
WIRE -288 336 -304 336
WIRE -256 336 -288 336
WIRE -384 352 -384 336
WIRE -1584 368 -1616 368
WIRE -1504 368 -1520 368
WIRE -1488 368 -1504 368
WIRE -1392 368 -1392 304
WIRE -1392 368 -1408 368
WIRE -1376 368 -1392 368
WIRE -1264 368 -1264 288
WIRE -1264 368 -1296 368
WIRE -1152 368 -1264 368
WIRE -1040 368 -1152 368
WIRE -528 368 -528 304
WIRE -1152 384 -1152 368
WIRE -1584 400 -1600 400
WIRE -1504 400 -1504 368
WIRE -1504 400 -1520 400
WIRE -192 400 -192 384
WIRE -128 400 -192 400
WIRE -80 400 -128 400
WIRE -128 416 -128 400
WIRE -1024 432 -1024 416
WIRE -1024 432 -1040 432
WIRE -192 432 -192 400
WIRE -384 448 -384 432
WIRE -384 448 -400 448
WIRE -1152 464 -1152 448
WIRE -384 480 -384 448
WIRE -192 528 -192 496
WIRE -128 528 -128 496
WIRE -128 528 -192 528
WIRE -64 528 -128 528
WIRE -32 528 -32 416
WIRE -32 528 -64 528
WIRE -32 544 -32 528
WIRE -384 608 -384 544
WIRE -384 608 -496 608
WIRE -32 656 -32 624
WIRE -32 656 -496 656
WIRE 32 656 -32 656
WIRE 112 656 32 656
WIRE 208 656 176 656
WIRE 352 656 208 656
WIRE -32 688 -32 656
WIRE -1456 752 -1536 752
WIRE -1312 752 -1392 752
WIRE -384 768 -384 608
WIRE 208 768 208 656
WIRE -1056 784 -1120 784
WIRE -864 784 -992 784
WIRE 352 784 352 656
WIRE -128 800 -192 800
WIRE -80 800 -128 800
WIRE -32 800 -32 768
WIRE -32 800 -80 800
WIRE -1536 832 -1536 752
WIRE -1408 832 -1536 832
WIRE -1312 832 -1312 752
WIRE -1312 832 -1328 832
WIRE -1280 832 -1312 832
WIRE -128 832 -128 800
WIRE -192 848 -192 800
WIRE -1120 864 -1120 784
WIRE -992 864 -1120 864
WIRE -864 864 -864 784
WIRE -864 864 -912 864
WIRE -752 864 -752 784
WIRE -752 864 -800 864
WIRE -384 864 -384 832
WIRE -384 864 -400 864
WIRE -1392 880 -1408 880
WIRE -384 880 -384 864
WIRE 208 880 208 848
WIRE 352 880 352 864
WIRE -1392 896 -1392 880
WIRE -976 912 -992 912
WIRE -752 912 -752 864
WIRE -32 912 -32 800
WIRE -976 928 -976 912
WIRE -192 928 -192 912
WIRE -160 928 -192 928
WIRE -128 928 -128 912
WIRE -128 928 -160 928
WIRE -80 928 -128 928
WIRE -1312 944 -1312 832
WIRE -1312 944 -1360 944
WIRE -192 944 -192 928
WIRE 352 960 352 944
WIRE -1680 976 -1712 976
WIRE -1536 976 -1536 832
WIRE -1536 976 -1616 976
WIRE -1504 976 -1536 976
WIRE -864 976 -864 864
WIRE -864 976 -944 976
WIRE -384 992 -384 960
WIRE -304 992 -384 992
WIRE -288 992 -304 992
WIRE -272 992 -288 992
WIRE -256 992 -272 992
WIRE -1280 1008 -1360 1008
WIRE -1248 1008 -1280 1008
WIRE -1216 1008 -1248 1008
WIRE -1120 1008 -1120 864
WIRE -1120 1008 -1136 1008
WIRE -1088 1008 -1120 1008
WIRE -384 1024 -384 992
WIRE -800 1040 -800 864
WIRE -800 1040 -944 1040
WIRE -304 1040 -304 992
WIRE -32 1040 -32 1008
WIRE -32 1040 -192 1040
WIRE 208 1040 208 960
WIRE -1440 1072 -1440 1056
WIRE -1248 1072 -1248 1008
WIRE -272 1072 -272 992
WIRE -176 1072 -272 1072
WIRE -1392 1088 -1392 1056
WIRE -752 1088 -752 992
WIRE -1024 1104 -1024 1088
WIRE -1280 1120 -1280 1008
WIRE -976 1120 -976 1088
WIRE -304 1136 -304 1104
WIRE -176 1136 -176 1072
WIRE -32 1136 -32 1040
WIRE -384 1152 -384 1104
WIRE -32 1152 -32 1136
WIRE -1280 1168 -1280 1152
WIRE -1248 1168 -1248 1136
WIRE -384 1168 -384 1152
WIRE -176 1184 -176 1168
WIRE -432 1552 -576 1552
WIRE -48 1568 -192 1568
WIRE -432 1616 -432 1552
WIRE -432 1616 -464 1616
WIRE -576 1632 -576 1552
WIRE -576 1632 -624 1632
WIRE -528 1632 -576 1632
WIRE -48 1632 -48 1568
WIRE -48 1632 -80 1632
WIRE -448 1648 -464 1648
WIRE -432 1648 -448 1648
WIRE -336 1648 -352 1648
WIRE -320 1648 -336 1648
WIRE -192 1648 -192 1568
WIRE -192 1648 -240 1648
WIRE -144 1648 -192 1648
WIRE -64 1664 -80 1664
WIRE -48 1664 -64 1664
WIRE 48 1664 32 1664
WIRE 64 1664 48 1664
WIRE 208 1664 144 1664
WIRE 272 1664 208 1664
WIRE -448 1680 -448 1648
WIRE -64 1696 -64 1664
WIRE 272 1744 272 1664
WIRE -576 1792 -576 1632
WIRE -528 1792 -576 1792
WIRE -336 1792 -336 1648
WIRE -336 1792 -464 1792
WIRE -192 1808 -192 1648
WIRE -144 1808 -192 1808
WIRE 48 1808 48 1664
WIRE 48 1808 -80 1808
WIRE 272 1840 272 1824
FLAG -1472 -1632 0
FLAG -80 -2432 +12V
FLAG -80 -2368 -12V
FLAG -160 -2288 0
FLAG 32 -2400 pwrCtrlx
IOPIN 32 -2400 Out
FLAG -288 -2384 ue2
FLAG -480 -2464 +12V
FLAG -480 -2560 -12V
FLAG -416 -2304 0
FLAG -608 -2400 0
FLAG -1488 -2496 0
FLAG -1088 -2864 Aref_2
FLAG -288 -2512 ue1
FLAG -992 -2400 +12V
FLAG -992 -2336 -12V
FLAG -1088 -2432 +12V
FLAG -496 -1424 0
FLAG -352 -1424 inp_vcalc
FLAG -864 -848 0
FLAG -1168 -976 0
FLAG -1168 -880 0
FLAG -912 -656 0
FLAG -864 -1184 0
FLAG -976 -1184 0
FLAG -784 -1216 cRg
FLAG -784 -1280 cRf
FLAG -784 -1248 cRb
FLAG -1040 -1088 +5V
FLAG -1072 -816 +5V
FLAG -336 -896 0
FLAG -512 -848 0
FLAG -336 -1248 0
FLAG -96 -752 posRaw
IOPIN -96 -752 In
FLAG -496 -1168 Aref_2
FLAG -896 -1792 +12V
FLAG -896 -1856 -12V
FLAG -992 -1728 0
FLAG -480 -1776 +12V
FLAG -480 -1840 -12V
FLAG -576 -1712 0
FLAG -1280 -1840 DACx
FLAG -352 -1872 DACx
FLAG -832 -1904 DACxf1
FLAG -352 -1808 DACxf2
FLAG -352 -1744 DACxf1
FLAG -560 -2160 I_ctrl
IOPIN -560 -2160 In
FLAG -64 -1888 I_ctrl
IOPIN -64 -1888 Out
FLAG -1088 -2288 0
FLAG -1008 -2576 +12V
FLAG -1008 -2640 -12V
FLAG -1104 -2544 0
FLAG -1312 -2624 LTDACa
FLAG -784 -2528 LTDAC_off
FLAG -1088 -2912 Aref
FLAG -1520 -640 0
FLAG -1584 -752 ADC_quant
IOPIN -1584 -752 Out
FLAG -1184 -752 posX_ADC
FLAG -736 -2624 Aref
FLAG -1296 -3088 0
FLAG -1152 -3088 0
FLAG -496 -1056 ref_adc
FLAG -1104 -1040 pump
IOPIN -1104 -1040 BiDir
FLAG -1136 -512 0
FLAG -1232 -512 0
FLAG -1136 -256 0
FLAG -560 -240 pump
IOPIN -560 -240 BiDir
FLAG -560 -512 0
FLAG -512 -368 0
FLAG -240 -368 0
FLAG -112 -480 posRaw
IOPIN -112 -480 In
FLAG -432 -320 0
FLAG -784 -1088 0
FLAG -1184 -1088 0
FLAG -2144 -2384 +12V
FLAG -2144 -2352 -12V
FLAG -2320 -2144 0
FLAG -2176 -2144 0
FLAG -2320 -2224 +Vpwr
FLAG -2176 -2224 -Vpwr
FLAG -1984 -2384 +5V
FLAG 608 -2992 stimOffs
FLAG 384 -2592 0
FLAG 400 -2704 calcSum
FLAG 384 -2832 0
FLAG 608 -2912 stimac
FLAG 352 960 0
FLAG -1616 192 stimac
FLAG -1616 160 stimOffs
FLAG -1600 256 0
FLAG -1264 192 0
FLAG -1616 368 IsensA
FLAG -1264 288 sumB
FLAG -1024 240 +Vpwr
FLAG -1024 432 -Vpwr
FLAG -128 400 b_hi
FLAG -64 528 e_hi
FLAG -80 800 e_lo
FLAG -160 928 b_lo
FLAG -752 192 ucoil
IOPIN -752 192 In
FLAG -752 336 opV
IOPIN -752 336 Out
FLAG -976 416 0
FLAG -1600 400 0
FLAG -1616 128 stimpwl
FLAG -288 336 HS
FLAG -288 992 LS
FLAG -752 1088 0
FLAG -752 784 shunt
IOPIN -752 784 In
FLAG -1248 1168 0
FLAG -1200 832 0
FLAG -1712 976 Isensa
FLAG -1152 464 0
FLAG -496 656 Ucoil
IOPIN -496 656 Out
FLAG -400 864 bias_lo1
FLAG -384 992 bias_lo2
FLAG -384 336 bias_hi1
FLAG -400 448 bias_hi2
FLAG -496 608 opV
IOPIN -496 608 In
FLAG 272 1840 0
FLAG -448 1744 0
FLAG -624 1632 sallen
FLAG -64 1760 0
FLAG -112 1616 +12V
FLAG -496 1600 +12V
FLAG -112 1680 -12V
FLAG -496 1664 -12V
FLAG 208 1040 shunt
IOPIN 208 1040 Out
FLAG 208 1664 posDemod
FLAG 32 656 Ucoil
FLAG -1616 224 pwrCtrlx
IOPIN -1616 224 In
FLAG -304 160 0
FLAG -304 1136 0
FLAG -1328 256 -12V
FLAG -1328 320 +12V
FLAG -384 176 +Vpwr
FLAG -32 176 +Vpwr
FLAG -384 1152 -Vpwr
FLAG -32 1136 -Vpwr
FLAG -1184 192 0
FLAG -1184 112 0
FLAG -864 704 0
FLAG -1072 48 0
FLAG -880 48 0
FLAG -176 1184 0
FLAG -1280 1168 0
DATAFLAG -320 608 "I(D7)"
DATAFLAG -320 704 "I(D11)"
SYMBOL source-V -1472 -1744 M0
WINDOW 123 28 52 Left 2
WINDOW 39 0 0 Left 2
SYMATTR Value2 AC 1
SYMATTR InstName V1
SYMATTR Value PULSE(0 1 0 100n 100n 250u 500u)
SYMBOL res -272 -2496 R270
WINDOW 0 25 56 VTop 2
WINDOW 3 7 56 VBottom 2
SYMATTR InstName R1
SYMATTR Value {R1}
SYMBOL res -272 -2368 R270
WINDOW 0 25 56 VTop 2
WINDOW 3 7 56 VBottom 2
SYMATTR InstName R2
SYMATTR Value {R3}
SYMBOL res -176 -2384 R0
SYMATTR InstName R3
SYMATTR Value {R4}
SYMBOL res -144 -2496 R270
WINDOW 0 25 56 VTop 2
WINDOW 3 7 56 VBottom 2
SYMATTR InstName R4
SYMATTR Value {R2}
SYMBOL res -432 -2512 R0
SYMATTR InstName R5
SYMATTR Value 22k
SYMBOL res -432 -2400 R0
SYMATTR InstName R6
SYMATTR Value 22k
SYMBOL source-V -1488 -2608 M0
WINDOW 123 0 0 Left 2
WINDOW 39 0 0 Left 2
SYMATTR InstName V2
SYMATTR Value PULSE(0 3 10m 20m)
SYMBOL Misc\\jumper -816 -2576 R90
SYMATTR InstName X1
SYMBOL res -720 -2640 M90
WINDOW 0 0 56 VBottom 2
WINDOW 3 32 56 VTop 2
SYMATTR InstName R7
SYMATTR Value {R4b}
SYMBOL res -720 -2544 M90
WINDOW 0 0 56 VBottom 2
WINDOW 3 32 56 VTop 2
SYMATTR InstName R8
SYMATTR Value {R9}
SYMBOL res -592 -2512 M0
WINDOW 3 33 72 Left 2
WINDOW 0 35 48 Left 2
SYMATTR Value {R10}
SYMATTR InstName R9
SYMBOL source-Vmarker -1120 -2864 R0
WINDOW 3 -14 0 Right 2
SYMATTR Value V={Aref/2}
SYMATTR InstName U1
SYMBOL bv -384 -1424 R90
WINDOW 0 -27 56 VBottom 2
WINDOW 3 31 -9 VTop 2
SYMATTR InstName B1
SYMATTR Value V=1
SYMBOL Opamps\\LTC6360 -864 -928 M0
SYMATTR InstName U2
SYMBOL cap -1152 -896 M90
WINDOW 0 0 32 VBottom 2
WINDOW 3 32 32 VTop 2
SYMATTR InstName C1
SYMATTR Value 1µ
SYMBOL cap -1088 -960 M270
WINDOW 0 32 32 VTop 2
WINDOW 3 0 32 VBottom 2
SYMATTR InstName C2
SYMATTR Value .2µ
SYMBOL res -800 -736 M270
WINDOW 0 32 56 VTop 2
WINDOW 3 0 56 VBottom 2
SYMATTR InstName R10
SYMATTR Value 10
SYMBOL cap -896 -736 M0
SYMATTR InstName C3
SYMATTR Value 330p
SYMBOL cap -960 -1168 M0
SYMATTR InstName C4
SYMATTR Value 0.1µ
SYMBOL cap -848 -1168 M0
SYMATTR InstName C5
SYMATTR Value 10µ
SYMBOL source-Vmarker -816 -1280 R0
SYMATTR Value V={Rf}
SYMATTR InstName U3
SYMBOL source-Vmarker -816 -1248 R0
SYMATTR Value V={Rb}
SYMATTR InstName U4
SYMBOL source-Vmarker -816 -1216 R0
SYMATTR Value V={Rg}
SYMATTR InstName U5
SYMBOL res -800 -736 R270
WINDOW 0 25 56 VTop 2
WINDOW 3 7 56 VBottom 2
SYMATTR InstName Rf1
SYMATTR Value {Rf}
SYMBOL res -592 -736 M270
WINDOW 0 25 56 VTop 2
WINDOW 3 7 56 VBottom 2
SYMATTR InstName Rg1
SYMATTR Value {Rg}
SYMBOL res -608 -1152 M270
WINDOW 0 25 56 VTop 2
WINDOW 3 7 56 VBottom 2
SYMATTR InstName Rb1
SYMATTR Value {Rb}
SYMBOL Opamps\\LT1058 -480 -2448 M180
SYMATTR InstName U6
SYMBOL Opamps\\LT1058 -80 -2464 R0
SYMATTR InstName U7
SYMBOL Opamps\\LT1058 -992 -2432 R0
SYMATTR InstName U8
SYMBOL cap -128 -2576 R270
WINDOW 0 32 32 VTop 2
WINDOW 3 0 32 VBottom 2
SYMATTR InstName C6
SYMATTR Value 1p
SYMBOL References\\LT6650 -336 -1024 M0
SYMATTR InstName U9
SYMBOL res -496 -1072 M0
WINDOW 0 -30 44 Left 2
WINDOW 3 -29 227 Right 2
SYMATTR InstName R11
SYMATTR Value {(VrefSet/0.4V-1)*20k}
SYMBOL res -528 -960 R0
SYMATTR InstName R12
SYMATTR Value 20k
SYMBOL MDB_sym\\jumperRes -576 -1232 M0
SYMATTR InstName U10
SYMBOL res -224 -1136 M270
WINDOW 0 25 56 VTop 2
WINDOW 3 7 56 VBottom 2
SYMATTR InstName R13
SYMATTR Value 1k
SYMBOL cap -320 -1232 M0
SYMATTR InstName C7
SYMATTR Value 1n
SYMBOL source-Vmarker -224 -1152 M0
SYMATTR InstName U11
SYMBOL res -1216 -1856 M90
WINDOW 0 0 56 Invisible 2
WINDOW 3 32 56 VTop 2
SYMATTR InstName R14
SYMATTR Value 5k36
SYMBOL res -1104 -1856 M90
WINDOW 0 0 56 Invisible 2
WINDOW 3 32 56 VTop 2
SYMATTR InstName R15
SYMATTR Value 9k09
SYMBOL cap -1008 -1888 R270
WINDOW 0 32 32 Invisible 2
WINDOW 3 0 32 VBottom 2
SYMATTR InstName C8
SYMATTR Value 1n5
SYMBOL cap -976 -1808 M0
WINDOW 0 24 8 Invisible 2
SYMATTR InstName C9
SYMATTR Value 1n
SYMBOL res -800 -1840 M90
WINDOW 0 0 56 Invisible 2
WINDOW 3 32 56 VTop 2
SYMATTR InstName R16
SYMATTR Value 2k67
SYMBOL res -688 -1840 M90
WINDOW 0 0 56 Invisible 2
WINDOW 3 32 56 VTop 2
SYMATTR InstName R17
SYMATTR Value 1k33
SYMBOL cap -592 -1888 R270
WINDOW 0 32 32 Invisible 2
WINDOW 3 0 32 VBottom 2
SYMATTR InstName C10
SYMATTR Value 6n8
SYMBOL cap -560 -1792 M0
WINDOW 0 24 8 Invisible 2
SYMATTR InstName C11
SYMATTR Value 1n
SYMBOL MDB_sym\\jumperRes -272 -1872 R0
SYMATTR InstName U12
SYMBOL EXTRA\\Misc\\pot -1088 -2352 M0
SYMATTR InstName U13
SYMATTR Value R=100k
SYMBOL Opamps\\LT1058 -896 -1760 M180
SYMATTR InstName U14
SYMBOL Opamps\\LT1058 -480 -1744 M180
SYMATTR InstName U15
SYMBOL res -1232 -2640 M90
WINDOW 0 0 56 Invisible 2
WINDOW 3 32 56 VTop 2
SYMATTR InstName R18
SYMATTR Value 1k
SYMBOL cap -1088 -2608 M0
WINDOW 0 24 8 Invisible 2
WINDOW 3 -19 14 Left 2
SYMATTR InstName C12
SYMATTR Value 1n
SYMBOL Opamps\\LT1058 -1008 -2544 M180
SYMATTR InstName U16
SYMBOL source-Vmarker -1120 -2912 R0
WINDOW 3 -30 -1 Right 2
SYMATTR Value V={Aref}
SYMATTR InstName U17
SYMBOL res -1408 -768 R90
WINDOW 0 7 56 VBottom 2
WINDOW 3 25 56 VTop 2
SYMATTR InstName R19
SYMATTR Value 100
SYMBOL cap -1504 -736 M0
SYMATTR InstName C13
SYMATTR Value 1p
SYMBOL source-V -1472 -1840 M0
WINDOW 123 28 52 Left 2
WINDOW 39 0 0 Left 2
SYMATTR Value2 AC 1
SYMATTR InstName V3
SYMATTR Value PULSE(0 {Aref/2} 0 500u)
SYMBOL cap -720 -688 R90
WINDOW 0 0 32 VBottom 2
WINDOW 3 32 32 VTop 2
SYMATTR InstName C14
SYMATTR Value {Csar}
SYMBOL EIT_Semiconductors\\pnp -1200 -304 M180
SYMATTR InstName T1
SYMATTR Value FMMT723
SYMBOL res -1248 -320 R0
SYMATTR InstName R20
SYMATTR Value 10k
SYMBOL source-Vmarker -1232 -192 R0
SYMATTR Value V=-5V
SYMATTR InstName U18
SYMBOL res -1152 -496 R0
SYMATTR InstName R21
SYMATTR Value 1k
SYMBOL diode -1248 -512 R0
SYMATTR InstName D1
SYMATTR Value 1N4148
SYMBOL res -1248 -464 R0
SYMATTR InstName R22
SYMATTR Value 1k
SYMBOL res -544 -512 M0
SYMATTR InstName R23
SYMATTR Value 1
SYMBOL source-V -240 -480 R0
WINDOW 123 0 0 Left 2
WINDOW 39 0 0 Left 2
SYMATTR InstName V4
SYMATTR Value SINE(0 25 100)
SYMBOL sw -560 -400 M0
SYMATTR InstName S1
SYMATTR Value mySW
SYMBOL res -1280 -1856 R90
WINDOW 0 7 56 VBottom 2
WINDOW 3 25 56 VTop 2
SYMATTR InstName R24
SYMATTR Value 1
SYMBOL source-Vmarker -2160 -2384 R0
SYMATTR Value V=+12V
SYMATTR InstName U19
SYMBOL source-Vmarker -2160 -2352 R0
SYMATTR Value V=-12V
SYMATTR InstName U20
SYMBOL source-V -2176 -2240 R0
WINDOW 123 0 0 Left 2
WINDOW 39 0 0 Left 2
SYMATTR InstName V5
SYMATTR Value PULSE(0 {-Vsup} 0 500u)
SYMBOL source-V -2320 -2240 R0
WINDOW 3 -13 132 Left 2
WINDOW 123 0 0 Left 2
WINDOW 39 0 0 Left 2
SYMATTR Value PULSE(0 {Vsup} 0 500u)
SYMATTR InstName V6
SYMBOL source-Vmarker -2000 -2384 R0
SYMATTR Value V=+5V
SYMATTR InstName U21
SYMBOL source-V 608 -2992 M270
WINDOW 0 -27 56 VBottom 2
WINDOW 3 -28 -144 VBottom 2
WINDOW 123 0 0 Left 2
WINDOW 39 0 0 Left 2
SYMATTR InstName V7
SYMATTR Value PULSE({Vstim_peak} 0 0 100u)
SYMBOL bv 384 -2704 R0
WINDOW 3 49 50 Left 2
WINDOW 0 47 27 Left 2
SYMATTR Value V=V(stimoffs)-V(isensa)
SYMATTR InstName B2
SYMBOL source-V 384 -2944 R0
WINDOW 3 43 95 Left 2
WINDOW 123 43 67 Left 2
WINDOW 39 0 0 Left 2
WINDOW 0 46 46 Left 2
SYMATTR Value SINE(20m 1 100 20m)
SYMATTR Value2 AC 1
SYMATTR InstName V8
SYMBOL MDB_sym\\jumperRes 432 -3056 R0
WINDOW 0 1 88 Bottom 2
SYMATTR InstName U22
SYMBOL res 192 864 R0
SYMATTR InstName R28
SYMATTR Value 3.5
SYMBOL ind 192 752 R0
SYMATTR InstName L1
SYMATTR Value {Lcoil}
SYMBOL res 336 768 R0
SYMATTR InstName R29
SYMATTR Value 1t
SYMBOL cap 336 880 R0
SYMATTR InstName C15
SYMATTR Value 100n
SYMBOL Misc\\jumper 144 592 R0
SYMATTR InstName X2
SYMBOL Misc\\jumper -1552 160 R0
SYMATTR InstName X3
SYMBOL res -1504 176 M90
WINDOW 0 7 56 VBottom 2
WINDOW 3 25 56 VTop 2
SYMATTR InstName R30
SYMATTR Value 3k3
SYMBOL Opamps\\LTC6090 -976 336 R0
WINDOW 0 63 -48 Left 2
SYMATTR InstName U23
SYMBOL res -1184 176 M90
WINDOW 0 7 56 VBottom 2
WINDOW 3 25 56 VTop 2
SYMATTR InstName R31
SYMATTR Value 5k1
SYMBOL EIT_Semiconductors\\npn -256 288 R0
SYMATTR InstName T2
SYMATTR Value FMMT624
SYMBOL EIT_Semiconductors\\pnp -256 1040 M180
SYMATTR InstName T3
SYMATTR Value FMMT723
SYMBOL res -112 400 M0
WINDOW 3 67 149 Right 2
SYMATTR Value {bias_be1}
SYMATTR InstName R32
SYMBOL res -144 816 R0
WINDOW 3 -32 -42 Left 2
SYMATTR Value {bias_be1}
SYMATTR InstName R33
SYMBOL res -48 528 R0
SYMATTR InstName R34
SYMATTR Value .015
SYMBOL res -48 784 M180
WINDOW 0 36 76 Left 2
WINDOW 3 36 40 Left 2
SYMATTR InstName R35
SYMATTR Value .015
SYMBOL cap -176 432 M0
SYMATTR InstName C16
SYMATTR Value 10f
SYMBOL Misc\\jumper -800 272 R0
SYMATTR InstName X4
SYMBOL Misc\\jumper -800 128 R0
SYMATTR InstName X5
SYMBOL Misc\\jumper -1552 304 R0
SYMATTR InstName X6
SYMBOL cap -992 96 M90
WINDOW 0 0 32 VBottom 2
WINDOW 3 32 32 VTop 2
SYMATTR InstName C17
SYMATTR Value 22p
SYMBOL res -768 896 R0
SYMATTR InstName Rsh1
SYMATTR Value 0.015
SYMBOL Opamps\\LTC2050 -976 1008 M0
SYMATTR InstName U24
SYMBOL source-Vmarker -992 912 R0
SYMATTR InstName U25
SYMBOL source-Vmarker -976 1120 R180
SYMATTR Value V=-5V
SYMATTR InstName U26
SYMBOL res -1008 880 R270
WINDOW 0 32 56 VTop 2
WINDOW 3 0 56 VBottom 2
SYMATTR InstName R36
SYMATTR Value 270
SYMBOL res -848 800 R180
WINDOW 0 36 76 Left 2
WINDOW 3 36 40 Left 2
SYMATTR InstName R37
SYMATTR Value 27
SYMBOL cap -1056 800 R270
WINDOW 0 32 32 VTop 2
WINDOW 3 0 32 VBottom 2
SYMATTR InstName C18
SYMATTR Value 10p
SYMBOL source-Vmarker -1024 1104 R0
SYMATTR InstName U27
SYMBOL Opamps\\LTC2050 -1392 976 M0
SYMATTR InstName U28
SYMBOL source-Vmarker -1408 880 R0
SYMATTR InstName U29
SYMBOL source-Vmarker -1392 1088 R180
SYMATTR Value V=-5V
SYMATTR InstName U30
SYMBOL res -1424 848 R270
WINDOW 0 32 56 VTop 2
WINDOW 3 0 56 VBottom 2
SYMATTR InstName R38
SYMATTR Value 180
SYMBOL res -1232 1024 R270
WINDOW 0 32 56 VTop 2
WINDOW 3 0 56 VBottom 2
SYMATTR InstName R39
SYMATTR Value 1k
SYMBOL source-Vmarker -1440 1072 R0
SYMATTR InstName U31
SYMBOL res -1296 848 R270
WINDOW 0 32 56 VTop 2
WINDOW 3 0 56 VBottom 2
SYMATTR InstName R40
SYMATTR Value 20
SYMBOL Misc\\jumper -1648 912 M0
SYMATTR InstName X7
SYMBOL cap -1264 1072 R0
SYMATTR InstName C19
SYMATTR Value {1/(2*pi*1k*100k)}
SYMBOL res -1024 208 R270
WINDOW 0 25 56 VTop 2
WINDOW 3 7 56 VBottom 2
SYMATTR InstName R41
SYMATTR Value {5k1*Kp}
SYMBOL Opamps\\LT1468 -1328 352 M180
WINDOW 0 -20 64 Left 2
WINDOW 3 -115 65 Left 2
SYMATTR InstName U32
SYMBOL res -400 336 R0
SYMATTR InstName R42
SYMATTR Value {bias_b1}
SYMBOL res -400 864 R0
SYMATTR InstName R43
SYMATTR Value {bias_b1}
SYMBOL source-I -384 1104 R180
WINDOW 0 59 61 Left 2
WINDOW 3 47 37 Left 2
WINDOW 123 0 0 Left 2
WINDOW 39 35 11 Left 2
SYMATTR InstName I1
SYMATTR Value {Iq}
SYMATTR SpiceLine load
SYMBOL diode -400 480 R0
WINDOW 3 108 32 Right 2
SYMATTR Value 1N4148
SYMATTR InstName D2
SYMBOL diode -400 768 R0
WINDOW 3 113 32 Right 2
SYMATTR Value 1N4148
SYMATTR InstName D3
SYMBOL voltage 272 1728 M0
WINDOW 123 24 124 Left 2
WINDOW 39 24 117 Left 2
WINDOW 3 -60 158 Left 2
SYMATTR Value2 AC 1
SYMATTR Value SINE(0 1 {fsig})
SYMATTR InstName V9
SYMBOL res -448 1632 M90
WINDOW 0 0 56 VBottom 2
WINDOW 3 32 56 VTop 2
SYMATTR InstName R44
SYMATTR Value {R2b}
SYMBOL res -336 1632 M90
WINDOW 0 0 56 VBottom 2
WINDOW 3 32 56 VTop 2
SYMATTR InstName R45
SYMATTR Value {R1b}
SYMBOL cap -432 1680 M0
SYMATTR InstName C20
SYMATTR Value {C1b}
SYMBOL cap -528 1776 M90
WINDOW 0 0 32 VBottom 2
WINDOW 3 32 32 VTop 2
SYMATTR InstName C21
SYMATTR Value {C2b}
SYMBOL res -64 1648 M90
WINDOW 0 0 56 VBottom 2
WINDOW 3 32 56 VTop 2
SYMATTR InstName R46
SYMATTR Value {R2a}
SYMBOL res 48 1648 M90
WINDOW 0 0 56 VBottom 2
WINDOW 3 32 56 VTop 2
SYMATTR InstName R47
SYMATTR Value {R1a}
SYMBOL cap -48 1696 M0
SYMATTR InstName C22
SYMATTR Value {C1a}
SYMBOL Opamps\\LT1124 -112 1584 M0
SYMATTR InstName U33
SYMBOL cap -144 1792 M90
WINDOW 0 0 32 VBottom 2
WINDOW 3 32 32 VTop 2
SYMATTR InstName C23
SYMATTR Value {C2a}
SYMBOL Opamps\\LT1124 -496 1568 M0
SYMATTR InstName U35
SYMBOL EIT_Semiconductors\\nmos -80 320 R0
SYMATTR InstName M1
SYMATTR Value IRFP240 off
SYMBOL EIT_Semiconductors\\pmos -80 1008 M180
SYMATTR InstName M2
SYMATTR Value IRFP9240
SYMBOL cap -176 848 M0
SYMATTR InstName C24
SYMATTR Value 10f
SYMBOL source-I -384 288 R180
WINDOW 0 59 61 Left 2
WINDOW 3 47 37 Left 2
WINDOW 123 0 0 Left 2
WINDOW 39 35 11 Left 2
SYMATTR InstName I2
SYMATTR Value {Iq}
SYMATTR SpiceLine load
SYMBOL res -1504 352 M90
WINDOW 0 7 56 VBottom 2
WINDOW 3 25 56 VTop 2
SYMATTR InstName R52
SYMATTR Value 3k3
SYMBOL res -1392 352 M90
WINDOW 0 7 56 VBottom 2
WINDOW 3 25 56 VTop 2
SYMATTR InstName R53
SYMATTR Value 3k3
SYMBOL res -1376 176 M90
WINDOW 0 7 56 VBottom 2
WINDOW 3 25 56 VTop 2
SYMATTR InstName R54
SYMATTR Value 3k3
SYMBOL cap -320 192 R0
SYMATTR InstName C25
SYMATTR Value 22p
SYMBOL cap -320 1104 M180
WINDOW 0 24 64 Left 2
WINDOW 3 24 8 Left 2
SYMATTR InstName C26
SYMATTR Value 22p
SYMBOL cap -1152 96 M90
WINDOW 0 0 32 VBottom 2
WINDOW 3 32 32 VTop 2
SYMATTR InstName C27
SYMATTR Value 150p
TEXT -1704 -2968 Left 5 ;STM32f429i
TEXT -1696 -2760 Left 5 ;STM32 DAC \nVout_ctrl
TEXT -1688 -1864 Left 2 ;PULSE(0 3 2m 10n 10n 500u 1m)
TEXT -552 -2704 Left 2 !.param R9 = 27k\n.param R4b = 3910\n.param R10 = 1220
TEXT -96 -2296 Left 2 !.param R1=60k\n.param R2=120k\n.param R3=60k\n.param R4=120k
TEXT -1224 -1272 Left 3 ;SAR ADC driver\nAngular position
TEXT -528 -2136 Left 1 ;Eingangswiderstand muss >15k \nsein (DAC0_SEL == DAC0 STM32)
TEXT -1192 -2000 Left 3 ;DAC reconstruction
TEXT -1216 -1688 Left 2 ;; ti filter bench\n; ******  Antialias posDemod ADC  ******\n; Lowpass, Sallen Key, Gaussian to 6 dB\n; fc = 20kHz   (Cut-off)\n; fs = 100kHz (Stopband)\n; Asb = -45dB (Verstärkung bei fs)
TEXT -824 -1592 Left 2 ;.param R1a=5.36k  R2a=9.09k  C1a=910p  C2a=1.5n\n.param R1b=2.67k R2b=1.33k  C1b=910p  C2b=6.8n
TEXT -1224 -2688 Left 1 ;Digital offset for DAC bias\nreconstruction filter
TEXT -1232 -2736 Left 1 ;DAC levelshifter bias circuit
TEXT -1176 -2968 Left 3 ;REF2050
TEXT -632 -1360 Left 2 ;V=(Aref/R4b+V(DAC_offs)/R9) * 1/(1/R4b+1/R9+1/R10)
TEXT -632 -640 Left 2 !.param Csar = 10p
TEXT -704 -552 Left 2 !.param Ipump = 1m
TEXT -824 -96 Left 2 !.model mysw sw (Ron=1m Roff=1meg Vt=10 Vh=-.05 Ilimit=50m)
TEXT -1704 -1608 Left 2 ;SINE(0 1 {f_I_ctrl} 1m)
TEXT -680 -3056 Left 2 !.OPTIONS METHOD=GEAR
TEXT -2208 -2784 Left 2 ;;.tran 0 100m 1m\n;.options plotwinsize=0\n;.tran 0 2.8m 1.9m 1e-7\n.ac oct 100 10 1meg
TEXT -2208 -2648 Left 2 ;.option noopiter\n.options plotwinsize=0\n.four 1k 10 I(L1)
TEXT -2208 -2680 Left 2 ;.dc V3 -5 5 .01
TEXT -2208 -2816 Left 2 !.tran 0 3m 1m
TEXT -2208 -2560 Left 2 ;.tran 0 100m 1m\n.options plotwinsize=0
TEXT -2200 -2496 Left 2 ;.tran 0 50m\n.options plotwinsize=0
TEXT -2208 -2448 Left 2 ;.step param I0 list 100u 10n
TEXT 1272 -3016 Left 2 !; ---------------------\n;   Power amp\n; ---------------------\n;.param Rset_bias = 100\n.param Iq = 1m\n;.param UV1 = 0.75V\n.param bias_be1 = 150\n;.param bias_b1 = {UV1/Ik3}\n.param bias_b1 = 750\n.param Lcoil = 170u
TEXT 1032 -3016 Left 2 !; ---------------------\n;   Compensator\n; ---------------------\n.param Rsu = 1k\n.param Kp = 5\n;.param Ki = 15000
TEXT 1032 -2848 Left 2 !; ---------------------\n;   SOURCES\n; ---------------------\n.param Vsup = 25V\n.param Vstim_peak = 5\n.param Aref = 2.5V  ; Ref2050
TEXT 384 -2792 Left 2 ;PULSE({-Vstim_peak} {Vstim_peak} 0 100n 100n 1m 2m)\nPULSE({-Vstim_peak} {Vstim_peak} 0 100m 100n 500u 100m)
TEXT 1032 -3056 Left 3 ;Parameter
TEXT 368 -3056 Left 3 ;Stimulus
TEXT 1328 -2688 Left 2 !.param f_I_ctrl = 500