Version 4
SHEET 1 1852 3652
WIRE -5168 -1008 -5200 -1008
WIRE -5136 -1008 -5168 -1008
WIRE -3664 -992 -3680 -992
WIRE -3568 -992 -3600 -992
WIRE -3552 -992 -3568 -992
WIRE -3456 -992 -3472 -992
WIRE -5168 -960 -5200 -960
WIRE -5136 -960 -5168 -960
WIRE -3680 -928 -3680 -992
WIRE -3568 -912 -3568 -992
WIRE -3456 -912 -3568 -912
WIRE -3680 -832 -3680 -848
WIRE -5392 -720 -5568 -720
WIRE -5296 -720 -5392 -720
WIRE -5184 -720 -5216 -720
WIRE -5120 -720 -5184 -720
WIRE -4800 -720 -4832 -720
WIRE -4784 -720 -4800 -720
WIRE -4688 -720 -4704 -720
WIRE -5184 -704 -5184 -720
WIRE -5024 -704 -5056 -704
WIRE -4960 -704 -5024 -704
WIRE -3664 -704 -3680 -704
WIRE -3616 -704 -3664 -704
WIRE -5568 -688 -5568 -720
WIRE -5120 -688 -5136 -688
WIRE -4208 -688 -4240 -688
WIRE -4096 -688 -4144 -688
WIRE -3680 -688 -3680 -704
WIRE -5136 -640 -5136 -688
WIRE -5024 -640 -5024 -704
WIRE -5024 -640 -5136 -640
WIRE -4560 -640 -4560 -656
WIRE -4960 -624 -4960 -640
WIRE -4896 -624 -4960 -624
WIRE -4800 -624 -4896 -624
WIRE -4784 -624 -4800 -624
WIRE -4688 -624 -4688 -720
WIRE -4688 -624 -4704 -624
WIRE -4592 -624 -4688 -624
WIRE -4960 -608 -4960 -624
WIRE -4496 -608 -4528 -608
WIRE -4400 -608 -4496 -608
WIRE -4352 -608 -4400 -608
WIRE -4336 -608 -4352 -608
WIRE -4240 -608 -4240 -688
WIRE -4240 -608 -4256 -608
WIRE -4208 -608 -4240 -608
WIRE -4096 -608 -4096 -688
WIRE -4096 -608 -4128 -608
WIRE -5568 -592 -5568 -608
WIRE -4688 -592 -4688 -624
WIRE -4592 -592 -4624 -592
WIRE -4496 -592 -4496 -608
WIRE -3680 -592 -3680 -608
WIRE -2416 -592 -2560 -592
WIRE -2032 -576 -2176 -576
WIRE -4560 -560 -4560 -576
WIRE -5024 -544 -5136 -544
WIRE -4960 -544 -5024 -544
WIRE -5168 -528 -5168 -544
WIRE -2416 -528 -2416 -592
WIRE -2416 -528 -2448 -528
WIRE -4240 -512 -4240 -608
WIRE -4192 -512 -4240 -512
WIRE -2560 -512 -2560 -592
WIRE -2560 -512 -2608 -512
WIRE -2512 -512 -2560 -512
WIRE -2032 -512 -2032 -576
WIRE -2032 -512 -2064 -512
WIRE -5168 -496 -5168 -528
WIRE -4688 -496 -4688 -512
WIRE -4624 -496 -4624 -592
WIRE -4496 -496 -4496 -512
WIRE -4496 -496 -4624 -496
WIRE -4096 -496 -4096 -608
WIRE -4096 -496 -4128 -496
WIRE -4048 -496 -4096 -496
WIRE -2432 -496 -2448 -496
WIRE -2416 -496 -2432 -496
WIRE -2320 -496 -2336 -496
WIRE -2304 -496 -2320 -496
WIRE -2176 -496 -2176 -576
WIRE -2176 -496 -2224 -496
WIRE -2128 -496 -2176 -496
WIRE -5136 -480 -5136 -544
WIRE -5104 -480 -5136 -480
WIRE -4496 -480 -4496 -496
WIRE -4352 -480 -4368 -480
WIRE -4336 -480 -4352 -480
WIRE -4240 -480 -4256 -480
WIRE -4192 -480 -4240 -480
WIRE -2048 -480 -2064 -480
WIRE -2032 -480 -2048 -480
WIRE -1936 -480 -1952 -480
WIRE -1920 -480 -1936 -480
WIRE -1776 -480 -1840 -480
WIRE -1712 -480 -1776 -480
WIRE -5024 -464 -5024 -544
WIRE -5024 -464 -5040 -464
WIRE -4240 -464 -4240 -480
WIRE -2432 -464 -2432 -496
WIRE -5104 -448 -5136 -448
WIRE -2048 -448 -2048 -480
WIRE -3024 -400 -3040 -400
WIRE -2992 -400 -3024 -400
WIRE -2864 -400 -2880 -400
WIRE -2832 -400 -2864 -400
WIRE -1712 -400 -1712 -480
WIRE -5168 -384 -5168 -400
WIRE -3024 -368 -3040 -368
WIRE -2992 -368 -3024 -368
WIRE -2560 -352 -2560 -512
WIRE -2512 -352 -2560 -352
WIRE -2320 -352 -2320 -496
WIRE -2320 -352 -2448 -352
WIRE -2176 -336 -2176 -496
WIRE -2128 -336 -2176 -336
WIRE -1936 -336 -1936 -480
WIRE -1936 -336 -2064 -336
WIRE -1712 -304 -1712 -320
WIRE -4368 -256 -4368 -480
WIRE -4368 -256 -4640 -256
WIRE -5088 0 -5184 0
WIRE -4912 0 -5024 0
WIRE -4672 0 -4768 0
WIRE -4496 0 -4608 0
WIRE -4432 32 -4464 32
WIRE -4384 32 -4432 32
WIRE -4288 32 -4320 32
WIRE -5552 64 -5616 64
WIRE -5456 64 -5552 64
WIRE -5360 64 -5376 64
WIRE -5280 64 -5360 64
WIRE -5184 64 -5184 0
WIRE -5184 64 -5200 64
WIRE -5168 64 -5184 64
WIRE -5072 64 -5088 64
WIRE -5008 64 -5072 64
WIRE -4912 80 -4912 0
WIRE -4912 80 -4944 80
WIRE -4864 80 -4912 80
WIRE -4768 80 -4768 0
WIRE -4768 80 -4784 80
WIRE -4752 80 -4768 80
WIRE -4656 80 -4672 80
WIRE -4592 80 -4656 80
WIRE -5552 96 -5552 64
WIRE -5072 96 -5072 64
WIRE -5008 96 -5024 96
WIRE -4496 96 -4496 0
WIRE -4496 96 -4528 96
WIRE -4432 96 -4496 96
WIRE -4384 96 -4432 96
WIRE -4288 96 -4288 32
WIRE -4288 96 -4320 96
WIRE -4144 96 -4144 16
WIRE -4144 96 -4288 96
WIRE -4656 112 -4656 80
WIRE -4592 112 -4608 112
WIRE -5616 128 -5712 128
WIRE -5024 144 -5024 96
WIRE -4912 144 -4912 80
WIRE -4912 144 -5024 144
WIRE -4608 160 -4608 112
WIRE -4496 160 -4496 96
WIRE -4496 160 -4608 160
WIRE -4432 160 -4464 160
WIRE -4384 160 -4432 160
WIRE -4288 160 -4288 96
WIRE -4288 160 -4320 160
WIRE -5072 176 -5072 160
WIRE -4656 192 -4656 176
WIRE -5552 208 -5552 160
WIRE -5552 304 -5552 288
WIRE -5552 400 -5552 384
WIRE -4560 480 -4576 480
WIRE -4432 480 -4480 480
WIRE -4400 480 -4432 480
WIRE -3040 480 -3072 480
WIRE -3216 528 -3232 528
WIRE -3056 528 -3072 528
WIRE -2992 528 -3056 528
WIRE -2864 528 -2928 528
WIRE -3360 544 -3376 544
WIRE -5776 560 -5808 560
WIRE -5680 560 -5696 560
WIRE -5648 560 -5680 560
WIRE -5536 560 -5568 560
WIRE -3568 560 -3600 560
WIRE -3408 560 -3424 560
WIRE -3392 560 -3408 560
WIRE -2368 592 -2368 576
WIRE -2016 592 -2016 576
WIRE -5680 608 -5680 560
WIRE -5536 608 -5536 560
WIRE -3648 608 -3760 608
WIRE -3600 608 -3600 560
WIRE -3600 608 -3648 608
WIRE -3568 608 -3600 608
WIRE -3488 608 -3504 608
WIRE -3472 608 -3488 608
WIRE -3376 608 -3376 544
WIRE -3376 608 -3392 608
WIRE -3344 608 -3376 608
WIRE -3248 608 -3264 608
WIRE -3152 608 -3168 608
WIRE -3056 608 -3056 528
WIRE -3056 608 -3072 608
WIRE -2992 608 -3056 608
WIRE -2864 608 -2864 528
WIRE -2864 608 -2912 608
WIRE -2816 608 -2864 608
WIRE -2736 608 -2752 608
WIRE -2288 608 -2288 576
WIRE -4864 624 -4896 624
WIRE -2368 624 -2368 592
WIRE -3568 640 -3616 640
WIRE -3488 640 -3488 608
WIRE -3488 640 -3504 640
WIRE -4864 656 -4896 656
WIRE -3760 656 -3760 608
WIRE -4416 672 -4416 656
WIRE -3568 672 -3584 672
WIRE -3488 672 -3488 640
WIRE -3488 672 -3504 672
WIRE -3312 672 -3328 672
WIRE -2976 672 -2992 672
WIRE -2880 672 -2976 672
WIRE -4864 688 -4896 688
WIRE -3376 688 -3376 608
WIRE -3344 688 -3376 688
WIRE -2976 688 -2976 672
WIRE -2880 688 -2880 672
WIRE -3248 704 -3280 704
WIRE -2016 704 -2016 592
WIRE -2016 704 -2176 704
WIRE -3344 720 -3376 720
WIRE -2912 720 -2928 720
WIRE -5056 736 -5056 720
WIRE -4944 736 -4944 720
WIRE -4688 736 -4704 736
WIRE -4576 736 -4624 736
WIRE -4560 736 -4576 736
WIRE -3312 736 -3328 736
WIRE -2992 736 -3008 736
WIRE -2928 736 -2928 720
WIRE -2016 736 -2016 704
WIRE -4416 752 -4416 736
WIRE -4400 752 -4416 752
WIRE -4304 752 -4320 752
WIRE -3760 752 -3760 736
WIRE -3056 752 -3056 608
WIRE -3008 752 -3008 736
WIRE -3008 752 -3056 752
WIRE -2960 752 -3008 752
WIRE -2368 752 -2368 704
WIRE -2272 752 -2368 752
WIRE -2240 752 -2272 752
WIRE -2800 768 -2896 768
WIRE -2368 768 -2368 752
WIRE -3600 784 -3632 784
WIRE -3568 784 -3600 784
WIRE -3488 784 -3504 784
WIRE -3472 784 -3488 784
WIRE -3376 784 -3376 720
WIRE -3376 784 -3392 784
WIRE -3360 784 -3376 784
WIRE -3248 784 -3248 704
WIRE -3248 784 -3280 784
WIRE -3216 784 -3248 784
WIRE -3136 784 -3152 784
WIRE -3008 784 -3136 784
WIRE -2960 784 -3008 784
WIRE -4416 800 -4416 752
WIRE -3008 800 -3008 784
WIRE -2992 800 -3008 800
WIRE -5056 816 -5056 800
WIRE -5056 816 -5120 816
WIRE -5008 816 -5056 816
WIRE -4944 816 -4944 800
WIRE -4944 816 -5008 816
WIRE -3568 816 -3584 816
WIRE -3488 816 -3488 784
WIRE -3488 816 -3504 816
WIRE -2176 816 -2176 800
WIRE -2112 816 -2176 816
WIRE -2064 816 -2112 816
WIRE -3376 832 -3376 784
WIRE -3344 832 -3376 832
WIRE -3248 832 -3248 784
WIRE -3248 832 -3280 832
WIRE -2928 832 -2928 800
WIRE -2912 832 -2928 832
WIRE -2112 832 -2112 816
WIRE -4608 848 -4640 848
WIRE -4592 848 -4608 848
WIRE -4528 848 -4592 848
WIRE -2176 848 -2176 816
WIRE -5200 864 -5248 864
WIRE -5152 864 -5200 864
WIRE -5056 864 -5056 816
WIRE -4944 864 -4944 816
WIRE -4784 864 -4784 736
WIRE -3600 864 -3600 784
WIRE -3568 864 -3600 864
WIRE -3456 864 -3504 864
WIRE -3344 864 -3344 848
WIRE -3344 864 -3376 864
WIRE -3216 864 -3344 864
WIRE -3136 864 -3136 784
WIRE -3136 864 -3152 864
WIRE -2976 864 -2976 848
WIRE -2368 864 -2368 848
WIRE -2368 864 -2384 864
WIRE -4784 880 -4784 864
WIRE -3072 880 -3072 864
WIRE -2928 880 -2928 848
WIRE -3344 896 -3344 864
WIRE -2368 896 -2368 864
WIRE -5232 928 -5248 928
WIRE -5152 928 -5152 864
WIRE -5152 928 -5168 928
WIRE -5136 928 -5152 928
WIRE -4592 944 -4592 928
WIRE -4528 944 -4528 912
WIRE -4528 944 -4592 944
WIRE -2176 944 -2176 912
WIRE -2112 944 -2112 912
WIRE -2112 944 -2176 944
WIRE -2048 944 -2112 944
WIRE -2016 944 -2016 832
WIRE -2016 944 -2048 944
WIRE -4592 960 -4592 944
WIRE -2016 960 -2016 944
WIRE -2528 976 -2560 976
WIRE -2368 976 -2368 960
WIRE -2368 976 -2464 976
WIRE -3344 992 -3344 960
WIRE -4416 1008 -4416 960
WIRE -5232 1024 -5248 1024
WIRE -5152 1024 -5152 928
WIRE -5152 1024 -5168 1024
WIRE -5136 1024 -5152 1024
WIRE -2368 1024 -2368 976
WIRE -2368 1024 -2480 1024
WIRE -4592 1056 -4592 1040
WIRE -2016 1072 -2016 1040
WIRE -2016 1072 -2480 1072
WIRE -1952 1072 -2016 1072
WIRE -1872 1072 -1952 1072
WIRE -1776 1072 -1808 1072
WIRE -1632 1072 -1776 1072
WIRE -5056 1088 -5152 1088
WIRE -4944 1088 -4944 1056
WIRE -2016 1104 -2016 1072
WIRE -5600 1152 -5664 1152
WIRE -5584 1152 -5600 1152
WIRE -5504 1152 -5520 1152
WIRE -5264 1152 -5504 1152
WIRE -4992 1152 -5264 1152
WIRE -4976 1152 -4992 1152
WIRE -4880 1152 -4880 1088
WIRE -4880 1152 -4896 1152
WIRE -4864 1152 -4880 1152
WIRE -4784 1152 -4784 1088
WIRE -4768 1152 -4784 1152
WIRE -4176 1152 -4688 1152
WIRE -5600 1168 -5600 1152
WIRE -4992 1168 -4992 1152
WIRE -3392 1168 -3472 1168
WIRE -3264 1168 -3328 1168
WIRE -2368 1184 -2368 1024
WIRE -1776 1184 -1776 1072
WIRE -3040 1200 -3104 1200
WIRE -2880 1200 -2976 1200
WIRE -1632 1200 -1632 1072
WIRE -2112 1216 -2176 1216
WIRE -2064 1216 -2112 1216
WIRE -2016 1216 -2016 1184
WIRE -2016 1216 -2064 1216
WIRE -4880 1232 -4880 1152
WIRE -4864 1232 -4880 1232
WIRE -4784 1232 -4784 1152
WIRE -4784 1232 -4800 1232
WIRE -4992 1248 -4992 1232
WIRE -3472 1248 -3472 1168
WIRE -3360 1248 -3472 1248
WIRE -3264 1248 -3264 1168
WIRE -3264 1248 -3280 1248
WIRE -3232 1248 -3264 1248
WIRE -2112 1248 -2112 1216
WIRE -5600 1264 -5600 1232
WIRE -3104 1264 -3104 1200
WIRE -2992 1264 -3104 1264
WIRE -2880 1264 -2880 1200
WIRE -2880 1264 -2912 1264
WIRE -2848 1264 -2880 1264
WIRE -2704 1264 -2704 1200
WIRE -2704 1264 -2768 1264
WIRE -2176 1264 -2176 1216
WIRE -2368 1280 -2368 1248
WIRE -2368 1280 -2384 1280
WIRE -3328 1296 -3344 1296
WIRE -2368 1296 -2368 1280
WIRE -1776 1296 -1776 1264
WIRE -1632 1296 -1632 1280
WIRE -3328 1312 -3328 1296
WIRE -2960 1328 -2976 1328
WIRE -2016 1328 -2016 1216
WIRE -2960 1344 -2960 1328
WIRE -2176 1344 -2176 1328
WIRE -2144 1344 -2176 1344
WIRE -2112 1344 -2112 1328
WIRE -2112 1344 -2144 1344
WIRE -2064 1344 -2112 1344
WIRE -3264 1360 -3264 1248
WIRE -3264 1360 -3296 1360
WIRE -2176 1360 -2176 1344
WIRE -3104 1376 -3104 1264
WIRE -1632 1376 -1632 1360
WIRE -3728 1392 -3744 1392
WIRE -3648 1392 -3728 1392
WIRE -3472 1392 -3472 1248
WIRE -3472 1392 -3584 1392
WIRE -3440 1392 -3472 1392
WIRE -2880 1392 -2880 1264
WIRE -2880 1392 -2928 1392
WIRE -4640 1408 -4640 1392
WIRE -2704 1408 -2704 1264
WIRE -2368 1408 -2368 1376
WIRE -2272 1408 -2368 1408
WIRE -2240 1408 -2272 1408
WIRE -5216 1424 -5216 1392
WIRE -4192 1424 -4320 1424
WIRE -3264 1424 -3296 1424
WIRE -3216 1424 -3264 1424
WIRE -3200 1424 -3216 1424
WIRE -3104 1424 -3104 1376
WIRE -3104 1424 -3120 1424
WIRE -3072 1424 -3104 1424
WIRE -4320 1440 -4320 1424
WIRE -2368 1440 -2368 1408
WIRE -2784 1456 -2784 1312
WIRE -2784 1456 -2928 1456
WIRE -2016 1456 -2016 1424
WIRE -2016 1456 -2176 1456
WIRE -1776 1456 -1776 1376
WIRE -3376 1488 -3376 1472
WIRE -3216 1488 -3216 1424
WIRE -2704 1504 -2704 1488
WIRE -4640 1520 -4640 1488
WIRE -3328 1520 -3328 1472
WIRE -3008 1520 -3008 1504
WIRE -4640 1536 -4640 1520
WIRE -4320 1536 -4320 1520
WIRE -5312 1552 -5312 1536
WIRE -5280 1552 -5312 1552
WIRE -2960 1552 -2960 1504
WIRE -2288 1552 -2288 1520
WIRE -2016 1552 -2016 1456
WIRE -3728 1568 -3744 1568
WIRE -3648 1568 -3728 1568
WIRE -3264 1568 -3264 1424
WIRE -3264 1568 -3584 1568
WIRE -3216 1568 -3216 1552
WIRE -2368 1568 -2368 1520
WIRE -2016 1568 -2016 1552
WIRE -4512 1584 -4592 1584
WIRE -3264 1584 -3264 1568
WIRE -2368 1584 -2368 1568
WIRE -5312 1600 -5312 1552
WIRE -4640 1600 -4640 1584
WIRE -5216 1648 -5216 1600
WIRE -4640 1664 -4640 1600
WIRE -5312 1712 -5312 1680
WIRE -3616 1808 -3632 1808
WIRE -3536 1808 -3552 1808
WIRE -3472 1808 -3536 1808
WIRE -3344 1808 -3408 1808
WIRE -2608 1824 -2640 1824
WIRE -3632 1888 -3648 1888
WIRE -3536 1888 -3536 1808
WIRE -3536 1888 -3552 1888
WIRE -3472 1888 -3536 1888
WIRE -3344 1888 -3344 1808
WIRE -3344 1888 -3392 1888
WIRE -3296 1888 -3344 1888
WIRE -5152 1968 -5200 1968
WIRE -5024 1968 -5072 1968
WIRE -5472 1984 -5472 1968
WIRE -5472 1984 -5536 1984
WIRE -5424 1984 -5472 1984
WIRE -5360 1984 -5360 1968
WIRE -5360 1984 -5424 1984
WIRE -5616 2032 -5664 2032
WIRE -5568 2032 -5616 2032
WIRE -5472 2032 -5472 1984
WIRE -5360 2032 -5360 1984
WIRE -5200 2032 -5200 1968
WIRE -3536 2032 -3536 1888
WIRE -3440 2032 -3536 2032
WIRE -5200 2048 -5200 2032
WIRE -3296 2048 -3296 1888
WIRE -3296 2048 -3376 2048
WIRE -3280 2048 -3296 2048
WIRE -3440 2064 -3536 2064
WIRE -5024 2080 -5024 1968
WIRE -5648 2096 -5664 2096
WIRE -5568 2096 -5568 2032
WIRE -5568 2096 -5584 2096
WIRE -5552 2096 -5568 2096
WIRE -5024 2176 -5024 2160
WIRE -5648 2192 -5664 2192
WIRE -5568 2192 -5568 2096
WIRE -5568 2192 -5584 2192
WIRE -5552 2192 -5568 2192
WIRE -5472 2256 -5568 2256
WIRE -5360 2256 -5360 2224
WIRE -3200 2304 -3232 2304
WIRE -3184 2304 -3200 2304
WIRE -3056 2304 -3104 2304
WIRE -2928 2304 -2976 2304
WIRE -5408 2320 -5680 2320
WIRE -5392 2320 -5408 2320
WIRE -5296 2320 -5296 2256
WIRE -5296 2320 -5312 2320
WIRE -5280 2320 -5296 2320
WIRE -5200 2320 -5200 2256
WIRE -5184 2320 -5200 2320
WIRE -5056 2320 -5104 2320
WIRE -5008 2320 -5056 2320
WIRE -3232 2320 -3232 2304
WIRE -2976 2320 -2976 2304
WIRE -5408 2336 -5408 2320
WIRE -3200 2368 -3200 2304
WIRE -5296 2400 -5296 2320
WIRE -5280 2400 -5296 2400
WIRE -5200 2400 -5200 2320
WIRE -5200 2400 -5216 2400
WIRE -3056 2400 -3056 2384
WIRE -2976 2400 -2976 2368
WIRE -5408 2416 -5408 2400
WIRE -3200 2448 -3200 2432
WIRE -5424 2560 -5440 2560
WIRE -5344 2560 -5360 2560
WIRE -5536 2640 -5568 2640
WIRE -5440 2640 -5440 2560
WIRE -5440 2640 -5456 2640
WIRE -5424 2640 -5440 2640
WIRE -5344 2640 -5344 2560
WIRE -5328 2640 -5344 2640
WIRE -5232 2640 -5248 2640
WIRE -4928 2640 -4960 2640
WIRE -4912 2640 -4928 2640
WIRE -4816 2640 -4832 2640
WIRE -4832 2656 -4832 2640
WIRE -5344 2720 -5344 2640
WIRE -5344 2720 -5360 2720
WIRE -5440 2736 -5440 2640
WIRE -5424 2736 -5440 2736
WIRE -4912 2736 -4912 2720
WIRE -4832 2736 -4832 2704
WIRE -5312 2752 -5360 2752
WIRE -5184 2752 -5232 2752
WIRE -5184 2768 -5184 2752
WIRE -5184 2864 -5184 2848
FLAG -1632 1376 0
FLAG -3584 672 0
FLAG -3248 608 0
FLAG -3632 784 IsensA
FLAG -3248 704 sumB
FLAG -2112 816 b_hi
FLAG -2048 944 e_hi
FLAG -2064 1216 e_lo
FLAG -2144 1344 b_lo
FLAG -2736 608 ucoil
IOPIN -2736 608 In
FLAG -2800 768 opV
IOPIN -2800 768 Out
FLAG -2944 816 0
FLAG -3456 -992 stimOffs
FLAG -3584 816 0
FLAG -3680 -592 0
FLAG -3664 -704 calcSum
FLAG -3680 -832 0
FLAG -3456 -912 stimac
FLAG -2272 752 HS
FLAG -2272 1408 LS
FLAG -2704 1504 0
FLAG -2704 1200 shunt
IOPIN -2704 1200 In
FLAG -3216 1568 0
FLAG -3152 1248 0
FLAG -3728 1392 Isensa
FLAG -3072 880 0
FLAG -2480 1072 Ucoil
IOPIN -2480 1072 Out
FLAG -2384 1280 bias_lo1
FLAG -2368 1408 bias_lo2
FLAG -2368 752 bias_hi1
FLAG -2384 864 bias_hi2
FLAG -2480 1024 opV
IOPIN -2480 1024 In
FLAG -3024 -400 +12V
FLAG -3024 -368 -12V
FLAG -5552 400 0
FLAG -4160 -528 +12V
FLAG -4160 -464 -12V
FLAG -4240 -384 0
FLAG -4048 -496 pwrCtrlx
IOPIN -4048 -496 Out
FLAG -4352 -480 ue2
FLAG -4560 -560 +12V
FLAG -4560 -656 -12V
FLAG -4496 -400 0
FLAG -4688 -496 0
FLAG -5568 -592 0
FLAG -5136 -960 Aref_2
FLAG -4352 -608 ue1
FLAG -5072 -496 +12V
FLAG -5072 -432 -12V
FLAG -5168 -528 +12V
FLAG -4576 480 0
FLAG -4432 480 inp_vcalc
FLAG -4944 1056 0
FLAG -5248 928 0
FLAG -5248 1024 0
FLAG -4992 1248 0
FLAG -4944 720 0
FLAG -5056 720 0
FLAG -1712 -304 0
FLAG -2432 -400 0
FLAG -2608 -512 sallen
FLAG -2048 -384 0
FLAG -2096 -528 +12V
FLAG -2480 -544 +12V
FLAG -2096 -464 -12V
FLAG -2480 -480 -12V
FLAG -4864 688 cRg
FLAG -4864 624 cRf
FLAG -4864 656 cRb
FLAG -5120 816 +5V
FLAG -5152 1088 +5V
FLAG -4416 1008 0
FLAG -4592 1056 0
FLAG -4416 656 0
FLAG -4176 1152 posRaw
IOPIN -4176 1152 In
FLAG -4576 736 Aref_2
FLAG -4976 112 +12V
FLAG -4976 48 -12V
FLAG -5072 176 0
FLAG -4560 128 +12V
FLAG -4560 64 -12V
FLAG -4656 192 0
FLAG -5360 64 DACx
FLAG -4432 32 DACx
FLAG -4912 0 DACxf1
FLAG -4432 96 DACxf2
FLAG -4432 160 DACxf1
FLAG -4640 -256 I_ctrl
IOPIN -4640 -256 In
FLAG -4144 16 I_ctrl
IOPIN -4144 16 Out
FLAG -5088 -672 +12V
FLAG -5088 -736 -12V
FLAG -5184 -640 0
FLAG -5392 -720 LTDACa
FLAG -4896 -624 LTDAC_off
FLAG -5136 -1008 Aref
FLAG -1776 1456 shunt
IOPIN -1776 1456 Out
FLAG -5600 1264 0
FLAG -5664 1152 ADC_quant
IOPIN -5664 1152 Out
FLAG -5264 1152 posX_ADC
FLAG -1776 -480 posDemod
FLAG -1952 1072 Ucoil
FLAG -3616 640 pwrCtrlx
IOPIN -3616 640 In
FLAG -2288 576 0
FLAG -2288 1552 0
FLAG -4832 -720 Aref
FLAG -3312 672 -12V
FLAG -3312 736 +12V
FLAG -2368 592 +Vpwr
FLAG -2016 592 +Vpwr
FLAG -2368 1568 -Vpwr
FLAG -2016 1552 -Vpwr
FLAG -3408 -288 0
FLAG -3264 -288 0
FLAG -3408 -368 +Vpwr
FLAG -3264 -368 -Vpwr
FLAG -3168 608 0
FLAG -4640 848 ref_adc
IOPIN -4640 848 Out
FLAG -5248 864 pump
IOPIN -5248 864 BiDir
FLAG -2864 -400 +5V
FLAG -5216 1392 0
FLAG -5312 1392 0
FLAG -5216 1648 0
FLAG -4640 1664 pump
IOPIN -4640 1664 BiDir
FLAG -4640 1392 0
FLAG -4592 1536 0
FLAG -4320 1536 0
FLAG -4192 1424 posRaw
IOPIN -4192 1424 In
FLAG -4512 1584 0
FLAG -5168 -384 -12V
FLAG -5712 208 0
FLAG -5808 560 stimuli_DAC
FLAG -5680 672 0
FLAG -5536 672 0
FLAG -5680 560 tt1
FLAG -5536 560 tt2
FLAG -5552 64 stimuli_DAC
FLAG -2608 1824 stimuli_DAC
FLAG -3728 1568 Isensa
FLAG -3056 1168 0
FLAG -2992 1168 0
FLAG -3648 496 stimuli_DAC
IOPIN -3648 496 In
FLAG -2272 1456 0
FLAG -2288 1456 0
FLAG -2288 672 0
FLAG -2560 976 stimuli_DAC
FLAG -2928 832 -Vpwr
FLAG -2928 720 +Vpwr
FLAG -3760 752 0
FLAG -3648 608 stimac2
FLAG -2928 880 0
FLAG -2976 864 -Vpwr
FLAG -2992 672 +Vpwr
FLAG -3232 528 0
FLAG -3664 176 0
FLAG -3696 160 0
FLAG -3696 128 0
FLAG -3648 1888 0
FLAG -3536 2064 sumB
FLAG -3408 560 hv+
FLAG -3008 784 hv+
FLAG -2784 1312 0
FLAG -3200 2448 0
FLAG -3104 1376 shmon1
FLAG -2928 2304 shmon1
FLAG -3056 2400 0
FLAG -2976 2400 0
FLAG -3232 2352 0
FLAG -3344 992 0
FLAG -3216 864 0
FLAG -5360 2224 0
FLAG -5664 2096 0
FLAG -5664 2192 0
FLAG -5408 2416 0
FLAG -5536 1984 +5V
FLAG -5568 2256 +5V
FLAG -5680 2320 posX_ADCf
FLAG -5664 2032 pump
IOPIN -5664 2032 BiDir
FLAG -5056 2320 stimuli_DAC
FLAG -4912 2736 0
FLAG -4832 2736 0
FLAG -4928 2640 la
FLAG -5232 2640 stimuli_DAC
FLAG -5568 2640 posX_ADCf3
FLAG -5184 2864 0
FLAG -4816 2640 stimuli_DAC
FLAG -5024 2176 0
DATAFLAG -2288 1168 "I(D12)"
DATAFLAG -2304 976 "I(D11)"
DATAFLAG -4800 -720 ""
DATAFLAG -4800 -624 ""
DATAFLAG -5024 -544 ""
DATAFLAG -5168 -1008 ""
DATAFLAG -5168 -960 ""
DATAFLAG -5008 816 ""
DATAFLAG -5200 864 ""
DATAFLAG -4608 848 "round($*100)/100"
DATAFLAG -1952 1328 "Is(M2)"
DATAFLAG -1952 864 "Is(M1)"
DATAFLAG -2240 832 "Ie(T1)"
DATAFLAG -2256 1360 "Ie(T2)"
DATAFLAG -2448 624 "I(I1)"
DATAFLAG -2464 1552 "I(I6)"
DATAFLAG -2112 1168 "V(e_lo,b_lo)"
DATAFLAG -2304 1312 "V(bias_lo1,ls)"
DATAFLAG -4400 -608 "round(100*$)/100"
DATAFLAG -5424 1984 ""
DATAFLAG -5616 2032 ""
SYMBOL res -1792 1280 R0
SYMATTR InstName R1
SYMATTR Value 3.54
SYMBOL ind -1792 1168 R0
SYMATTR InstName L1
SYMATTR Value {Lcoil}
SYMBOL res -1648 1184 R0
SYMATTR InstName R2
SYMATTR Value {Rsnub}
SYMBOL cap -1648 1296 R0
SYMATTR InstName C1
SYMATTR Value 220n
SYMBOL Misc\\jumper -1840 1008 R0
SYMATTR InstName X1
SYMBOL source-Vmarker -3040 -400 R0
SYMATTR Value V=+12V
SYMATTR InstName U1
SYMBOL source-Vmarker -3040 -368 R0
SYMATTR Value V=-12V
SYMATTR InstName U2
SYMBOL Misc\\jumper -3536 544 R0
SYMATTR InstName X2
SYMBOL res -3488 592 M90
WINDOW 0 7 56 VBottom 2
WINDOW 3 25 56 VTop 2
SYMATTR InstName R4
SYMATTR Value 3k3
SYMBOL res -3168 592 M90
WINDOW 0 7 56 VBottom 2
WINDOW 3 25 56 VTop 2
SYMATTR InstName R7
SYMATTR Value 5k1
SYMBOL EIT_Semiconductors\\npn -2240 704 R0
SYMATTR InstName T1
SYMATTR Value FMMT624
SYMBOL EIT_Semiconductors\\pnp -2240 1456 M180
WINDOW 3 15 -28 Left 2
SYMATTR Value {FMMT723_STEPPED}
SYMATTR InstName T2
SYMBOL res -2096 816 M0
WINDOW 3 67 149 Right 2
SYMATTR Value {bias_be1}
SYMATTR InstName R8
SYMBOL res -2128 1232 R0
WINDOW 3 -32 -42 Left 2
SYMATTR Value {bias_be1}
SYMATTR InstName R9
SYMBOL res -2032 944 R0
SYMATTR InstName R10
SYMATTR Value .015
SYMBOL res -2032 1200 M180
WINDOW 0 36 76 Left 2
WINDOW 3 36 40 Left 2
SYMATTR InstName R11
SYMATTR Value .015
SYMBOL cap -2160 848 M0
SYMATTR InstName C3
SYMATTR Value 10f
SYMBOL Misc\\jumper -2496 880 R0
SYMATTR InstName X3
SYMBOL Misc\\jumper -2784 544 R0
SYMATTR InstName X4
SYMBOL source-V -3456 -992 M270
WINDOW 0 -27 56 VBottom 2
WINDOW 3 -28 -144 VBottom 2
WINDOW 123 0 0 Left 2
WINDOW 39 0 0 Left 2
SYMATTR InstName V2
SYMATTR Value PULSE({Vstim_peak} 0 0 100u)
SYMBOL bv -3680 -704 R0
WINDOW 3 49 50 Left 2
WINDOW 0 47 27 Left 2
SYMATTR Value V=V(stimoffs)-V(isensa)
SYMATTR InstName B1
SYMBOL source-V -3680 -944 R0
WINDOW 3 43 95 Left 2
WINDOW 123 43 67 Left 2
WINDOW 39 0 0 Left 2
WINDOW 0 46 46 Left 2
SYMATTR Value SINE(20m 1 100 20m)
SYMATTR Value2 AC 1
SYMATTR InstName V4
SYMBOL MDB_sym\\jumperRes -3632 -1056 R0
WINDOW 0 -2 38 Bottom 2
WINDOW 39 -2 93 Bottom 2
WINDOW 123 0 0 Invisible 2
SYMATTR InstName U8
SYMATTR Value2 ""
SYMATTR Value ""
SYMATTR SpiceModel jumperResistorNoCfg
SYMBOL res -2720 1392 R0
SYMATTR InstName Rsh
SYMATTR Value .075
SYMBOL source-Vmarker -2976 1328 R0
SYMATTR InstName U10
SYMBOL source-Vmarker -2960 1552 M180
SYMATTR Value V=-5V
SYMATTR InstName U11
SYMBOL res -3008 1280 R270
WINDOW 0 32 56 VTop 2
WINDOW 3 0 56 VBottom 2
SYMATTR InstName R24
SYMATTR Value 270
SYMBOL res -2864 1280 R270
WINDOW 0 25 56 VTop 2
WINDOW 3 7 56 VBottom 2
SYMATTR InstName R25
SYMATTR Value {270}
SYMBOL source-Vmarker -3008 1520 R0
SYMATTR InstName U12
SYMBOL source-Vmarker -3344 1296 R0
SYMATTR InstName U14
SYMBOL source-Vmarker -3328 1520 M180
SYMATTR Value V=-5V
SYMATTR InstName U15
SYMBOL res -3376 1264 R270
WINDOW 0 32 56 VTop 2
WINDOW 3 0 56 VBottom 2
SYMATTR InstName R26
SYMATTR Value {39*2}
SYMBOL res -3216 1440 R270
WINDOW 0 32 56 VTop 2
WINDOW 3 0 56 VBottom 2
SYMATTR InstName R27
SYMATTR Value 100
SYMBOL source-Vmarker -3376 1488 R0
SYMATTR InstName U16
SYMBOL res -3248 1264 R270
WINDOW 0 32 56 VTop 2
WINDOW 3 0 56 VBottom 2
SYMATTR InstName R28
SYMATTR Value 39
SYMBOL res -3008 624 R270
WINDOW 0 25 56 VTop 2
WINDOW 3 7 56 VBottom 2
SYMATTR InstName R29
SYMATTR Value {5k1*Kp}
SYMBOL Opamps\\LT1468 -3664 208 M180
WINDOW 0 -35 4 Left 2
WINDOW 3 -115 65 Left 2
SYMATTR InstName U17
SYMBOL res -2352 752 M0
SYMATTR InstName R30
SYMATTR Value {bias_b1}
SYMBOL res -2352 1280 M0
SYMATTR InstName R31
SYMATTR Value {bias_b1}
SYMBOL source-I -2368 1520 R180
WINDOW 0 59 61 Left 2
WINDOW 3 47 37 Left 2
WINDOW 123 0 0 Left 2
WINDOW 39 47 13 Left 2
SYMATTR InstName I6
SYMATTR Value {Iq}
SYMBOL diode -2384 896 R0
WINDOW 3 108 32 Right 2
SYMATTR Value 1N4148
SYMATTR InstName D11
SYMBOL diode -2384 1184 R0
WINDOW 3 113 32 Right 2
SYMATTR Value 1N4148
SYMATTR InstName D12
SYMBOL source-V -5552 288 M0
WINDOW 123 28 52 Left 2
WINDOW 39 0 0 Left 2
SYMATTR Value2 AC 1
SYMATTR InstName V6
SYMATTR Value PULSE(0 1 0 100n 100n 250u 500u)
SYMBOL res -4352 -592 R270
WINDOW 0 25 56 VTop 2
WINDOW 3 7 56 VBottom 2
SYMATTR InstName R32
SYMATTR Value {R1}
SYMBOL res -4352 -464 R270
WINDOW 0 25 56 VTop 2
WINDOW 3 7 56 VBottom 2
SYMATTR InstName R33
SYMATTR Value {R3}
SYMBOL res -4256 -480 R0
SYMATTR InstName R34
SYMATTR Value {R4}
SYMBOL res -4224 -592 R270
WINDOW 0 25 56 VTop 2
WINDOW 3 7 56 VBottom 2
SYMATTR InstName R35
SYMATTR Value {R2}
SYMBOL res -4512 -608 R0
SYMATTR InstName R36
SYMATTR Value 22k
SYMBOL res -4512 -496 R0
SYMATTR InstName R37
SYMATTR Value 22k
SYMBOL source-V -5568 -704 M0
WINDOW 123 0 0 Left 2
WINDOW 39 0 0 Left 2
SYMATTR InstName V7
SYMATTR Value {dig_offs}
SYMBOL Misc\\jumper -4896 -672 R90
SYMATTR InstName X14
SYMBOL res -4800 -736 M90
WINDOW 0 0 56 VBottom 2
WINDOW 3 32 56 VTop 2
SYMATTR InstName R41
SYMATTR Value {R4b}
SYMBOL res -4800 -640 M90
WINDOW 0 0 56 VBottom 2
WINDOW 3 32 56 VTop 2
SYMATTR InstName R42
SYMATTR Value {R9}
SYMBOL res -4672 -608 M0
WINDOW 3 33 72 Left 2
WINDOW 0 35 48 Left 2
SYMATTR Value {R10}
SYMATTR InstName R43
SYMBOL source-Vmarker -5200 -960 R0
WINDOW 3 -14 0 Right 2
SYMATTR Value V={Aref/2}
SYMATTR InstName U24
SYMBOL bv -4464 480 R90
WINDOW 0 -27 56 VBottom 2
WINDOW 3 31 -9 VTop 2
SYMATTR InstName B2
SYMATTR Value V=1
SYMBOL Opamps\\LTC6360 -4944 976 M0
SYMATTR InstName U25
SYMBOL cap -5232 1008 M90
WINDOW 0 0 32 VBottom 2
WINDOW 3 32 32 VTop 2
SYMATTR InstName C8
SYMATTR Value 1µ
SYMBOL cap -5168 944 M270
WINDOW 0 32 32 VTop 2
WINDOW 3 0 32 VBottom 2
SYMATTR InstName C9
SYMATTR Value .2µ
SYMBOL res -4880 1168 M270
WINDOW 0 32 56 VTop 2
WINDOW 3 0 56 VBottom 2
SYMATTR InstName R45
SYMATTR Value 10
SYMBOL cap -4976 1168 M0
SYMATTR InstName C10
SYMATTR Value 330p
SYMBOL cap -5040 736 M0
SYMATTR InstName C11
SYMATTR Value 0.1µ
SYMBOL cap -4928 736 M0
SYMATTR InstName C12
SYMATTR Value 10µ
SYMBOL voltage -1712 -416 M0
WINDOW 123 24 124 Left 2
WINDOW 39 24 117 Left 2
WINDOW 3 -60 158 Left 2
SYMATTR Value2 AC 1
SYMATTR Value SINE(0 1 {fsig})
SYMATTR InstName V8
SYMBOL res -2432 -512 M90
WINDOW 0 0 56 VBottom 2
WINDOW 3 32 56 VTop 2
SYMATTR InstName R46
SYMATTR Value {R2b}
SYMBOL res -2320 -512 M90
WINDOW 0 0 56 VBottom 2
WINDOW 3 32 56 VTop 2
SYMATTR InstName R47
SYMATTR Value {R1b}
SYMBOL cap -2416 -464 M0
SYMATTR InstName C13
SYMATTR Value {C1b}
SYMBOL cap -2512 -368 M90
WINDOW 0 0 32 VBottom 2
WINDOW 3 32 32 VTop 2
SYMATTR InstName C14
SYMATTR Value {C2b}
SYMBOL res -2048 -496 M90
WINDOW 0 0 56 VBottom 2
WINDOW 3 32 56 VTop 2
SYMATTR InstName R48
SYMATTR Value {R2a}
SYMBOL res -1936 -496 M90
WINDOW 0 0 56 VBottom 2
WINDOW 3 32 56 VTop 2
SYMATTR InstName R49
SYMATTR Value {R1a}
SYMBOL cap -2032 -448 M0
SYMATTR InstName C15
SYMATTR Value {C1a}
SYMBOL Opamps\\LT1124 -2096 -560 M0
SYMATTR InstName U26
SYMBOL cap -2128 -352 M90
WINDOW 0 0 32 VBottom 2
WINDOW 3 32 32 VTop 2
SYMATTR InstName C16
SYMATTR Value {C2a}
SYMBOL Opamps\\LT1124 -2480 -576 M0
SYMATTR InstName U28
SYMBOL source-Vmarker -4896 624 R0
SYMATTR Value V={Rf}
SYMATTR InstName U31
SYMBOL source-Vmarker -4896 656 R0
SYMATTR Value V={Rb}
SYMATTR InstName U32
SYMBOL source-Vmarker -4896 688 R0
SYMATTR Value V={Rg}
SYMATTR InstName U33
SYMBOL res -4880 1168 R270
WINDOW 0 25 56 VTop 2
WINDOW 3 7 56 VBottom 2
SYMATTR InstName Rf2
SYMATTR Value {Rf}
SYMBOL res -4672 1168 M270
WINDOW 0 25 56 VTop 2
WINDOW 3 7 56 VBottom 2
SYMATTR InstName Rg2
SYMATTR Value {Rg}
SYMBOL res -4688 752 M270
WINDOW 0 25 56 VTop 2
WINDOW 3 7 56 VBottom 2
SYMATTR InstName Rb2
SYMATTR Value {Rb}
SYMBOL Opamps\\LT1058 -4560 -544 M180
SYMATTR InstName U37
SYMBOL Opamps\\LT1058 -4160 -560 R0
SYMATTR InstName U38
SYMBOL Opamps\\LT1058 -5072 -528 R0
SYMATTR InstName U39
SYMBOL cap -4208 -672 R270
WINDOW 0 32 32 VTop 2
WINDOW 3 0 32 VBottom 2
SYMATTR InstName C17
SYMATTR Value 1p
SYMBOL References\\LT6650 -4416 880 M0
SYMATTR InstName U40
SYMBOL res -4576 832 M0
WINDOW 0 -30 44 Left 2
WINDOW 3 -2 72 Right 2
SYMATTR InstName R54
SYMATTR Value 6k
SYMBOL res -4608 944 R0
SYMATTR InstName R55
SYMATTR Value 20k
SYMBOL MDB_sym\\jumperRes -4656 672 M0
WINDOW 39 -29 82 Left 2
WINDOW 123 0 0 Invisible 2
SYMATTR Value2 ""
SYMATTR InstName U41
SYMATTR Value ""
SYMATTR SpiceModel jumperResistorNoCfg
SYMBOL res -4304 768 M270
WINDOW 0 25 56 VTop 2
WINDOW 3 7 56 VBottom 2
SYMATTR InstName R56
SYMATTR Value 1k
SYMBOL cap -4400 672 M0
SYMATTR InstName C18
SYMATTR Value 1n
SYMBOL source-Vmarker -4304 752 M0
SYMATTR InstName U42
SYMBOL EIT_Semiconductors\\nmos -2064 736 R0
SYMATTR InstName M1
SYMATTR Value IRFP240
SYMBOL EIT_Semiconductors\\pmos -2064 1424 M180
SYMATTR InstName M2
SYMATTR Value IRFP9240
SYMBOL cap -2160 1264 M0
SYMATTR InstName C2
SYMATTR Value 10f
SYMBOL res -5296 48 M90
WINDOW 0 0 56 Invisible 2
WINDOW 3 32 56 VTop 2
SYMATTR InstName R12
SYMATTR Value 5k36
SYMBOL res -5184 48 M90
WINDOW 0 0 56 Invisible 2
WINDOW 3 32 56 VTop 2
SYMATTR InstName R13
SYMATTR Value 9k09
SYMBOL cap -5088 16 R270
WINDOW 0 32 32 Invisible 2
WINDOW 3 0 32 VBottom 2
SYMATTR InstName C19
SYMATTR Value 1n5
SYMBOL cap -5056 96 M0
WINDOW 0 24 8 Invisible 2
SYMATTR InstName C20
SYMATTR Value 1n
SYMBOL res -4880 64 M90
WINDOW 0 0 56 Invisible 2
WINDOW 3 32 56 VTop 2
SYMATTR InstName R14
SYMATTR Value 2k67
SYMBOL res -4768 64 M90
WINDOW 0 0 56 Invisible 2
WINDOW 3 32 56 VTop 2
SYMATTR InstName R15
SYMATTR Value 1k33
SYMBOL cap -4672 16 R270
WINDOW 0 32 32 Invisible 2
WINDOW 3 0 32 VBottom 2
SYMATTR InstName C21
SYMATTR Value 6n8
SYMBOL cap -4640 112 M0
WINDOW 0 24 8 Invisible 2
SYMATTR InstName C22
SYMATTR Value 1n
SYMBOL EXTRA\\Misc\\pot -5168 -448 M0
SYMATTR InstName U18
SYMATTR Value R=100k
SYMBOL Opamps\\LT1058 -4976 144 M180
SYMATTR InstName U20
SYMBOL Opamps\\LT1058 -4560 160 M180
SYMATTR InstName U4
SYMBOL res -5312 -736 M90
WINDOW 0 0 56 Invisible 2
WINDOW 3 32 56 VTop 2
SYMATTR InstName R17
SYMATTR Value 1k
SYMBOL cap -5168 -704 M0
WINDOW 0 24 8 Invisible 2
WINDOW 3 -19 14 Left 2
SYMATTR InstName C24
SYMATTR Value 1n
SYMBOL Opamps\\LT1058 -5088 -640 M180
SYMATTR InstName U5
SYMBOL source-Vmarker -5200 -1008 R0
WINDOW 3 -30 -1 Right 2
SYMATTR Value V={Aref}
SYMATTR InstName U21
SYMBOL res -5488 1136 R90
WINDOW 0 7 56 VBottom 2
WINDOW 3 25 56 VTop 2
SYMATTR InstName R136
SYMATTR Value 100
SYMBOL cap -5584 1168 M0
SYMATTR InstName C23
SYMATTR Value 1p
SYMBOL source-I -2368 704 R180
WINDOW 0 59 61 Left 2
WINDOW 3 47 37 Left 2
WINDOW 123 0 0 Left 2