Version 4
SHEET 1 940 680
WIRE 384 -320 272 -320
WIRE 432 -320 384 -320
WIRE 192 -304 96 -304
WIRE 272 -304 272 -320
WIRE 384 -304 384 -320
WIRE 192 -256 192 -304
WIRE 96 -240 96 -304
WIRE 192 -128 192 -176
WIRE 192 -128 112 -128
WIRE 464 -128 192 -128
WIRE 544 -128 464 -128
WIRE 192 -96 192 -128
WIRE 464 -96 464 -128
WIRE 272 -64 272 -224
WIRE 384 -64 384 -224
WIRE 112 -48 112 -128
WIRE 128 -48 112 -48
WIRE 544 -48 544 -128
WIRE 544 -48 528 -48
WIRE 272 16 272 -64
WIRE 384 16 384 -64
WIRE 192 64 192 0
WIRE 192 64 112 64
WIRE 208 64 192 64
WIRE 464 64 464 0
WIRE 464 64 448 64
WIRE 512 64 464 64
WIRE 32 96 32 64
WIRE 192 112 192 64
WIRE 32 128 32 96
WIRE 272 128 272 112
WIRE 304 128 272 128
WIRE 336 128 304 128
WIRE 384 128 384 112
WIRE 384 128 336 128
WIRE 512 144 512 64
WIRE 336 192 336 128
WIRE 192 240 192 192
WIRE 32 256 32 208
WIRE 336 304 336 272
FLAG 32 256 0
FLAG 336 304 0
FLAG 272 -64 c1
FLAG 384 -64 c2
FLAG 304 128 e12
FLAG 512 144 0
FLAG 96 -240 0
FLAG 192 240 0
FLAG 32 96 in
FLAG 16 -208 0
FLAG 16 -288 0
SYMBOL res 256 -320 R0
SYMATTR InstName RC1
SYMATTR Value {rc}
SYMBOL source-Vmarker 432 -320 M0
SYMATTR InstName U1
SYMBOL res 368 -320 R0
SYMATTR InstName RC2
SYMATTR Value {rc}
SYMBOL source-V 32 112 R0
WINDOW 123 0 0 Left 2
WINDOW 39 0 0 Left 2
WINDOW 3 -88 168 Left 2
SYMATTR Value SINE(0 0.9 1k)
SYMATTR InstName VA
SYMBOL EIT_Semiconductors\\npn 128 -96 R0
SYMATTR InstName D1
SYMATTR Value CA3046
SYMBOL EIT_Semiconductors\\npn 528 -96 M0
SYMATTR InstName D2
SYMATTR Value CA3046
SYMBOL EIT_Semiconductors\\npn 208 16 R0
SYMATTR InstName Q1
SYMATTR Value CA3046
SYMBOL EIT_Semiconductors\\npn 448 16 M0
SYMATTR InstName Q2
SYMATTR Value CA3046
SYMBOL source-I 336 272 R180
WINDOW 0 29 73 Left 2
WINDOW 3 29 17 Left 2
SYMATTR InstName I0
SYMATTR Value 1m
SYMBOL res 16 80 R270
WINDOW 0 25 56 VTop 2
WINDOW 3 7 56 VBottom 2
SYMATTR InstName RA
SYMATTR Value 1k
SYMBOL source-I 192 192 R180
WINDOW 0 29 73 Left 2
WINDOW 3 29 17 Left 2
SYMATTR InstName I1
SYMATTR Value 1m
SYMBOL source-I 16 -208 R180
WINDOW 0 29 73 Left 2
WINDOW 3 29 17 Left 2
SYMATTR InstName I2
SYMATTR Value 2m
SYMBOL source-Vmarker 192 -176 R0
SYMATTR Value V={ref}
SYMATTR InstName U2
TEXT -80 320 Left 2 !;dc VA -0.9 0.9 10m
TEXT 272 -400 Left 2 ;.step i0 0 1m 100u
TEXT -88 360 Left 2 !.tran 2m
TEXT -16 -360 Left 2 !.param rc=4k
TEXT -8 -400 Left 2 ;.step param rc 1k 5k 500
TEXT -80 -136 Left 2 !.param ref=5
TEXT -64 -40 Left 2 !.step param ref 5 1 -.5
