Version 4
SHEET 1 940 680
WIRE 192 -320 -80 -320
WIRE 272 -320 192 -320
WIRE 384 -320 272 -320
WIRE 432 -320 384 -320
WIRE -80 -304 -80 -320
WIRE 272 -304 272 -320
WIRE 384 -304 384 -320
WIRE 192 -256 192 -320
WIRE -80 -192 -80 -224
WIRE 16 -192 16 -224
WIRE 16 -192 -80 -192
WIRE 16 -176 16 -192
WIRE 192 -128 192 -176
WIRE 192 -128 112 -128
WIRE 464 -128 192 -128
WIRE 544 -128 464 -128
WIRE -80 -112 -80 -192
WIRE -64 -112 -80 -112
WIRE 16 -96 16 -112
WIRE 16 -96 0 -96
WIRE 96 -96 96 -224
WIRE 192 -96 192 -128
WIRE 464 -96 464 -128
WIRE -64 -80 -96 -80
WIRE -96 -64 -96 -80
WIRE 272 -64 272 -224
WIRE 384 -64 384 -224
WIRE 112 -48 112 -128
WIRE 128 -48 112 -48
WIRE 544 -48 544 -128
WIRE 544 -48 528 -48
WIRE 272 16 272 -64
WIRE 384 16 384 -64
WIRE 112 64 64 64
WIRE 192 64 192 0
WIRE 192 64 112 64
WIRE 208 64 192 64
WIRE 464 64 464 0
WIRE 464 64 448 64
WIRE 512 64 464 64
WIRE -16 96 -16 64
WIRE 192 96 192 64
WIRE -16 128 -16 96
WIRE 272 128 272 112
WIRE 304 128 272 128
WIRE 336 128 304 128
WIRE 384 128 384 112
WIRE 384 128 336 128
WIRE 112 144 112 64
WIRE 128 144 112 144
WIRE 512 144 512 64
WIRE 336 192 336 128
WIRE 192 224 192 192
WIRE -16 256 -16 208
WIRE 336 304 336 272
WIRE 96 352 96 -96
WIRE 192 352 192 304
WIRE 192 352 96 352
WIRE 272 352 256 352
WIRE 272 384 272 352
FLAG -16 256 0
FLAG 336 304 0
FLAG 272 -64 c1
FLAG 384 -64 c2
FLAG 304 128 e12
FLAG 512 144 0
FLAG -16 96 in
FLAG -96 -64 0
FLAG 272 384 0
SYMBOL res 256 -320 R0
SYMATTR InstName RC1
SYMATTR Value {rc}
SYMBOL source-Vmarker 432 -320 M0
SYMATTR InstName U1
SYMBOL res 368 -320 R0
SYMATTR InstName RC2
SYMATTR Value {rc}
SYMBOL source-V -16 112 R0
WINDOW 123 0 0 Left 2
WINDOW 39 0 0 Left 2
WINDOW 3 -88 168 Left 2
SYMATTR Value SINE(0 0.9 1k)
SYMATTR InstName VA
SYMBOL EIT_Semiconductors\\npn 128 -96 R0
SYMATTR InstName D1
SYMATTR Value CA3046
SYMBOL EIT_Semiconductors\\npn 528 -96 M0
SYMATTR InstName D2
SYMATTR Value CA3046
SYMBOL EIT_Semiconductors\\npn 208 16 R0
SYMATTR InstName Q1
SYMATTR Value CA3046
SYMBOL EIT_Semiconductors\\npn 448 16 M0
SYMATTR InstName Q2
SYMATTR Value CA3046
SYMBOL source-I 336 272 R180
WINDOW 0 29 73 Left 2
WINDOW 3 29 17 Left 2
SYMATTR InstName I0
SYMATTR Value 1m
SYMBOL res -32 80 R270
WINDOW 0 25 56 VTop 2
WINDOW 3 7 56 VBottom 2
SYMATTR InstName RA
SYMATTR Value 1k
SYMBOL res 176 -272 R0
SYMATTR InstName R1
SYMATTR Value 2.2k
SYMBOL res 176 208 R0
SYMATTR InstName R2
SYMATTR Value 4.4k
SYMBOL EIT_Semiconductors\\npn 128 96 R0
SYMATTR InstName D3
SYMATTR Value CA3046
SYMBOL EIT_Semiconductors\\op_3 -32 -96 R0
WINDOW 123 -114 117 Left 2
WINDOW 3 -124 65 Left 2
SYMATTR InstName U3
SYMBOL res 112 -240 R90
WINDOW 0 7 56 VBottom 2
WINDOW 3 25 56 VTop 2
SYMATTR InstName R3
SYMATTR Value 2k
SYMBOL res -64 -208 R180
WINDOW 0 36 76 Left 2
WINDOW 3 36 40 Left 2
SYMATTR InstName R4
SYMATTR Value 2k
SYMBOL cap 256 336 R90
WINDOW 0 0 32 VBottom 2
WINDOW 3 32 32 VTop 2
SYMATTR InstName C2
SYMATTR Value 100n
SYMBOL cap 0 -176 R0
WINDOW 3 42 37 Left 2
SYMATTR Value 1n
SYMATTR InstName C1
SYMBOL res 0 -80 R270
WINDOW 0 25 56 VTop 2
WINDOW 3 7 56 VBottom 2
SYMATTR InstName R5
SYMATTR Value 100
TEXT -80 320 Left 2 !;dc VA -0.9 0.9 10m
TEXT 272 -400 Left 2 ;.step i0 0 1m 100u
TEXT -88 360 Left 2 !.tran 2m
TEXT -16 -360 Left 2 !.param rc=4k
TEXT -8 -400 Left 2 ;.step param rc 1k 5k 500
TEXT 336 344 Left 2 !.step temp 0 100 50
