Version 4
SHEET 1 896 680
WIRE 176 -64 128 -64
WIRE 336 -64 176 -64
WIRE 352 -64 336 -64
WIRE 704 -64 352 -64
WIRE 176 -32 176 -64
WIRE 352 -32 352 -64
WIRE 704 0 704 -64
WIRE 352 64 352 48
WIRE 416 64 352 64
WIRE 432 64 416 64
WIRE 176 96 176 48
WIRE 208 96 176 96
WIRE 256 96 208 96
WIRE 352 96 352 64
WIRE 528 96 352 96
WIRE 704 96 704 80
WIRE 704 96 624 96
WIRE 176 112 176 96
WIRE 352 112 352 96
WIRE 528 112 528 96
WIRE 704 112 704 96
WIRE 112 160 64 160
WIRE 288 160 112 160
WIRE 624 160 624 96
WIRE 624 160 592 160
WIRE 640 160 624 160
WIRE 64 208 64 160
WIRE 352 224 352 208
WIRE 528 224 528 208
WIRE 528 224 352 224
WIRE 352 240 352 224
WIRE 704 272 704 208
WIRE 528 304 496 304
WIRE 560 304 528 304
WIRE 640 304 560 304
WIRE 64 320 64 288
WIRE 176 336 176 208
WIRE 352 336 352 320
WIRE 352 336 176 336
WIRE 176 352 176 336
WIRE 640 368 640 304
WIRE 496 416 496 304
WIRE 560 416 560 304
WIRE 576 416 560 416
WIRE 176 464 176 432
WIRE 496 528 496 496
WIRE 640 528 640 464
FLAG 176 464 0
FLAG 64 320 0
FLAG 416 64 b
FLAG 208 96 a
FLAG 640 528 0
FLAG 496 528 0
FLAG 528 304 tst
FLAG 336 -64 plus
FLAG 704 272 0
SYMBOL EIT_Semiconductors\\npn 112 112 R0
SYMATTR InstName Q1
SYMATTR Value CA3046
SYMBOL EIT_Semiconductors\\npn 288 112 R0
SYMATTR InstName Q2
SYMATTR Value CA3046 {m}
SYMBOL res 160 -48 R0
SYMATTR InstName RA
SYMATTR Value {RA}
SYMBOL res 336 -48 R0
SYMATTR InstName RB
SYMATTR Value {k*RA}
SYMBOL source-Vmarker 128 -64 R0
SYMATTR InstName U1
SYMBOL res 160 336 R0
SYMATTR InstName R1
SYMATTR Value 3.99k
SYMBOL res 336 224 R0
SYMATTR InstName R2
SYMATTR Value 1.4275k
SYMBOL source-V 64 192 R0
SYMATTR InstName V1
SYMATTR Value 1.2
SYMBOL EIT_Semiconductors\\npn 576 368 R0
SYMATTR InstName Q3
SYMATTR Value CA3046
SYMBOL source-I 496 416 R0
SYMATTR InstName I1
SYMATTR Value 100µ
SYMBOL EIT_Semiconductors\\npn 592 112 M0
WINDOW 3 -7 134 Left 2
SYMATTR Value CA3046
SYMATTR InstName Q4
SYMBOL EIT_Semiconductors\\npn 640 112 R0
WINDOW 3 -7 134 Left 2
SYMATTR Value CA3046
SYMATTR InstName Q5
SYMBOL res 688 -16 R0
SYMATTR InstName R3
SYMATTR Value {R3}
TEXT -72 40 Left 2 !;op
TEXT 120 -120 Left 2 !.param RA=10k m=8 k=2
TEXT -104 80 Left 2 !.dc V1 0 1.5 10m
TEXT 384 -128 Left 2 !.step param R3 list 1T 1meg 100k 50k 10k
TEXT 408 -160 Left 2 !.param R3=100k
