Version 4
SHEET 1 880 680
WIRE 176 -64 128 -64
WIRE 336 -64 176 -64
WIRE 352 -64 336 -64
WIRE 720 -64 352 -64
WIRE 176 -32 176 -64
WIRE 352 -32 352 -64
WIRE 624 32 528 32
WIRE 528 48 528 32
WIRE 720 48 720 -64
WIRE 176 64 176 48
WIRE 288 64 176 64
WIRE 448 64 288 64
WIRE 176 112 176 64
WIRE 352 112 352 48
WIRE 416 112 352 112
WIRE 432 112 416 112
WIRE 448 112 432 112
WIRE 80 160 64 160
WIRE 112 160 80 160
WIRE 288 160 112 160
WIRE 624 160 624 32
WIRE 624 160 288 160
WIRE 720 176 720 128
WIRE 720 176 640 176
WIRE 432 192 432 112
WIRE 496 192 432 192
WIRE 720 192 720 176
WIRE -128 208 -160 208
WIRE -96 208 -128 208
WIRE -16 208 -96 208
WIRE 640 240 640 176
WIRE 640 240 560 240
WIRE 656 240 640 240
WIRE -16 272 -16 208
WIRE 176 288 176 208
WIRE 224 288 176 288
WIRE 272 288 224 288
WIRE 352 288 352 208
WIRE 496 288 352 288
WIRE -160 320 -160 208
WIRE -96 320 -96 208
WIRE -80 320 -96 320
WIRE 720 336 720 288
WIRE 176 352 176 288
WIRE -160 432 -160 400
WIRE -16 432 -16 368
WIRE 176 464 176 432
FLAG 176 464 0
FLAG 416 112 b
FLAG 288 64 a
FLAG -16 432 0
FLAG -160 432 0
FLAG -128 208 tst
FLAG 336 -64 plus
FLAG 528 128 0
FLAG 80 160 ref
FLAG 224 288 e1
FLAG 720 336 0
SYMBOL EIT_Semiconductors\\npn 112 112 R0
SYMATTR InstName Q1
SYMATTR Value CA3046
SYMBOL EIT_Semiconductors\\npn 288 112 R0
SYMATTR InstName Q2
SYMATTR Value CA3046 {m}
SYMBOL res 160 -48 R0
SYMATTR InstName RA
SYMATTR Value {RA}
SYMBOL res 336 -48 R0
SYMATTR InstName RB
SYMATTR Value {k*RA}
SYMBOL source-Vmarker 128 -64 R0
SYMATTR InstName U1
SYMBOL res 160 336 R0
SYMATTR InstName R1
SYMATTR Value 3.99k
SYMBOL res 368 272 R90
WINDOW 0 7 56 VBottom 2
WINDOW 3 25 56 VTop 2
SYMATTR InstName R2
SYMATTR Value 1.4275k
SYMBOL EIT_Semiconductors\\npn -80 272 R0
SYMATTR InstName Q3
SYMATTR Value CA3046
SYMBOL source-I -160 320 R0
SYMATTR InstName I1
SYMATTR Value 100µ
SYMBOL crtl-V-V 528 32 R0
SYMATTR InstName E1
SYMATTR Value 10000
SYMBOL EIT_Semiconductors\\npn 560 192 M0
SYMATTR InstName Q4
SYMATTR Value CA3046
SYMBOL EIT_Semiconductors\\npn 656 192 R0
SYMATTR InstName Q5
SYMATTR Value CA3046
SYMBOL res 704 32 R0
SYMATTR InstName R3
SYMATTR Value 10k
TEXT -72 40 Left 2 !;op
TEXT 120 -120 Left 2 !.param RA=1k m=8 k=2
TEXT -104 80 Left 2 !.dc temp 0 100 1
