Version 4
SHEET 1 880 680
WIRE 176 -128 128 -128
WIRE 336 -128 176 -128
WIRE 352 -128 336 -128
WIRE 176 -96 176 -128
WIRE 352 -96 352 -128
WIRE 176 16 176 -16
WIRE 288 16 176 16
WIRE 496 16 288 16
WIRE 592 32 560 32
WIRE 624 32 592 32
WIRE 352 48 352 -16
WIRE 416 48 352 48
WIRE 496 48 416 48
WIRE 176 112 176 16
WIRE 352 112 352 48
WIRE 112 160 64 160
WIRE 288 160 112 160
WIRE 624 160 624 32
WIRE 624 160 288 160
WIRE 624 256 624 160
WIRE 176 288 176 208
WIRE 224 288 176 288
WIRE 272 288 224 288
WIRE 352 288 352 208
WIRE 176 304 176 288
WIRE 176 400 176 384
WIRE 352 400 176 400
WIRE 624 400 624 336
WIRE 624 400 352 400
WIRE 624 416 624 400
FLAG 416 48 b
FLAG 288 16 a
FLAG 336 -128 plus
FLAG 224 288 e1
FLAG 624 496 0
FLAG 592 32 out
FLAG 352 400 adj
SYMBOL EIT_Semiconductors\\npn 112 112 R0
SYMATTR InstName Q1
SYMATTR Value CA3046
SYMBOL EIT_Semiconductors\\npn 288 112 R0
SYMATTR InstName Q2
SYMATTR Value CA3046 {m}
SYMBOL res 160 -112 R0
SYMATTR InstName RA
SYMATTR Value {RA}
SYMBOL res 336 -112 R0
SYMATTR InstName RB
SYMATTR Value {k*RA}
SYMBOL source-Vmarker 128 -128 R0
SYMATTR InstName U1
SYMATTR Value V=10V
SYMBOL res 160 288 R0
SYMATTR InstName R1
SYMATTR Value 3.99k
SYMBOL res 368 272 R90
WINDOW 0 7 56 VBottom 2
WINDOW 3 25 56 VTop 2
SYMATTR InstName R2
SYMATTR Value 1.4275k
SYMBOL EIT_Semiconductors\\op_3 528 32 M180
SYMATTR InstName U2
SYMATTR Value Vp=10 Vm=+2 Ilim=20m
SYMBOL res 608 240 R0
SYMATTR InstName R3
SYMATTR Value 100
SYMBOL res 608 400 R0
SYMATTR InstName R4
SYMATTR Value 180
TEXT -72 40 Left 2 !;op
TEXT 120 -184 Left 2 !.param RA=1k m=8 k=2
TEXT -104 80 Left 2 !.dc temp 0 100 1
TEXT 64 448 Left 2 ;Prinzipschaltung LM317
