Version 4
SHEET 1 880 680
WIRE 192 -80 0 -80
WIRE 416 -80 192 -80
WIRE 0 16 0 -80
WIRE 416 64 416 0
WIRE 480 64 416 64
WIRE 496 64 480 64
WIRE 416 80 416 64
WIRE 192 96 192 0
WIRE 224 96 192 96
WIRE 256 96 224 96
WIRE 0 128 0 96
WIRE 192 176 192 96
WIRE 416 192 416 160
WIRE 128 304 128 224
WIRE 192 304 192 272
WIRE 352 304 352 240
WIRE 416 304 416 288
FLAG 416 304 0
FLAG 192 304 0
FLAG 128 304 0
FLAG 352 304 0
FLAG 0 128 0
FLAG 480 64 b
FLAG 224 96 a
SYMBOL EIT_Semiconductors\\pnp_o 128 176 R0
SYMATTR InstName QA
SYMATTR Value CA3096_pnp
SYMBOL EIT_Semiconductors\\pnp_o 352 192 R0
SYMATTR InstName QB
SYMATTR Value CA3096_pnp {m}
SYMBOL res 176 -96 R0
SYMATTR InstName RA
SYMATTR Value 10k
SYMBOL res 400 -96 R0
SYMATTR InstName RB
SYMATTR Value {10k*k}
SYMBOL res 400 64 R0
SYMATTR InstName R2
SYMATTR Value 2.341717k
SYMBOL source-V 0 0 R0
SYMATTR InstName V1
SYMATTR Value 1.2
TEXT 272 344 Left 2 !.param m=8 k=2
TEXT 104 96 Left 2 !;op
TEXT -32 176 Left 2 !.dc v1 0 1.5 10m
