Version 4
SHEET 1 880 680
WIRE 288 -80 192 -80
WIRE 416 -80 288 -80
WIRE 592 -80 416 -80
WIRE 416 32 416 0
WIRE 480 32 416 32
WIRE 512 32 480 32
WIRE 592 48 592 -80
WIRE 592 48 576 48
WIRE 192 64 192 0
WIRE 240 64 192 64
WIRE 512 64 240 64
WIRE 416 96 416 32
WIRE 192 176 192 64
WIRE 416 192 416 176
WIRE 128 304 128 224
WIRE 192 304 192 272
WIRE 352 304 352 240
WIRE 416 304 416 288
FLAG 416 304 0
FLAG 192 304 0
FLAG 128 304 0
FLAG 352 304 0
FLAG 480 32 b
FLAG 240 64 a
FLAG 288 -80 ref
SYMBOL EIT_Semiconductors\\pnp_o 128 176 R0
SYMATTR InstName QA
SYMATTR Value CA3096_pnp
SYMBOL EIT_Semiconductors\\pnp_o 352 192 R0
SYMATTR InstName QB
SYMATTR Value CA3096_pnp {m}
SYMBOL res 176 -96 R0
SYMATTR InstName RA
SYMATTR Value 10k
SYMBOL res 400 -96 R0
SYMATTR InstName RB
SYMATTR Value {10k*k}
SYMBOL res 400 80 R0
SYMATTR InstName R2
SYMATTR Value 2.341717k
SYMBOL EIT_Semiconductors\\op_3 544 48 R0
SYMATTR InstName U1
SYMATTR Value Vp=10 Vm=+0.5 Ilim=20m
TEXT 272 344 Left 2 !.param m=8 k=2
TEXT 104 96 Left 2 !;op
TEXT -32 176 Left 2 !.dc temp 0 100 5
