Version 4
SHEET 1 880 680
WIRE 80 -80 48 -80
WIRE 192 -80 144 -80
WIRE 288 -80 192 -80
WIRE 416 -80 288 -80
WIRE 528 -80 416 -80
WIRE 608 -80 592 -80
WIRE 48 -48 48 -80
WIRE 608 16 608 -80
WIRE 192 32 192 0
WIRE 272 32 192 32
WIRE 528 32 272 32
WIRE 48 64 48 32
WIRE 416 80 416 0
WIRE 480 80 416 80
WIRE 528 80 480 80
WIRE 416 96 416 80
WIRE 608 128 608 96
WIRE 192 176 192 32
WIRE 416 192 416 176
WIRE 128 304 128 224
WIRE 192 304 192 272
WIRE 352 304 352 240
WIRE 416 304 416 288
FLAG 416 304 0
FLAG 192 304 0
FLAG 128 304 0
FLAG 352 304 0
FLAG 480 80 b
FLAG 272 32 a
FLAG 288 -80 ref
FLAG 608 128 0
FLAG 48 64 0
SYMBOL EIT_Semiconductors\\pnp_o 128 176 R0
SYMATTR InstName QA
SYMATTR Value CA3096_pnp
SYMBOL EIT_Semiconductors\\pnp_o 352 192 R0
SYMATTR InstName QB
SYMATTR Value CA3096_pnp {m}
SYMBOL res 176 -96 R0
SYMATTR InstName RA
SYMATTR Value 10k
SYMBOL res 400 -96 R0
SYMATTR InstName RB
SYMATTR Value {10k*k}
SYMBOL res 400 80 R0
SYMATTR InstName R2
SYMATTR Value 2.341717k
SYMBOL crtl-V-V 608 0 R0
SYMATTR InstName E1
SYMATTR Value 10000
SYMBOL diode 592 -96 R90
WINDOW 0 0 32 VBottom 2
WINDOW 3 32 32 VTop 2
SYMATTR InstName D1
SYMBOL diode 80 -64 R270
WINDOW 0 32 32 VTop 2
WINDOW 3 0 32 VBottom 2
SYMATTR InstName D3
SYMBOL source-V 48 -64 R0
SYMATTR InstName V1
SYMATTR Value 1.2
TEXT 272 344 Left 2 !.param m=8 k=2
TEXT 104 96 Left 2 !;op
TEXT -32 176 Left 2 !.dc temp 0 100 5
