Version 4
SHEET 1 880 680
WIRE 176 -128 128 -128
WIRE 336 -128 176 -128
WIRE 352 -128 336 -128
WIRE 176 -96 176 -128
WIRE 352 -96 352 -128
WIRE 176 16 176 -16
WIRE 288 16 176 16
WIRE 496 16 288 16
WIRE 592 32 560 32
WIRE 624 32 592 32
WIRE 352 48 352 -16
WIRE 416 48 352 48
WIRE 496 48 416 48
WIRE 624 64 624 32
WIRE 176 112 176 16
WIRE 352 112 352 48
WIRE 80 160 64 160
WIRE 112 160 80 160
WIRE 288 160 112 160
WIRE 624 160 624 144
WIRE 624 160 288 160
WIRE -128 208 -160 208
WIRE -96 208 -128 208
WIRE -16 208 -96 208
WIRE 624 256 624 160
WIRE -16 272 -16 208
WIRE 176 288 176 208
WIRE 224 288 176 288
WIRE 272 288 224 288
WIRE 352 288 352 208
WIRE -160 320 -160 208
WIRE -96 320 -96 208
WIRE -80 320 -96 320
WIRE 176 352 176 288
WIRE 624 416 624 336
WIRE -160 432 -160 400
WIRE -16 432 -16 368
WIRE 176 464 176 432
FLAG 176 464 0
FLAG 416 48 b
FLAG 288 16 a
FLAG -16 432 0
FLAG -160 432 0
FLAG -128 208 tst
FLAG 336 -128 plus
FLAG 80 160 ref
FLAG 224 288 e1
FLAG 624 416 0
FLAG 592 32 out
SYMBOL EIT_Semiconductors\\npn 112 112 R0
SYMATTR InstName Q1
SYMATTR Value CA3046
SYMBOL EIT_Semiconductors\\npn 288 112 R0
SYMATTR InstName Q2
SYMATTR Value CA3046 {m}
SYMBOL res 160 -112 R0
SYMATTR InstName RA
SYMATTR Value {RA}
SYMBOL res 336 -112 R0
SYMATTR InstName RB
SYMATTR Value {k*RA}
SYMBOL source-Vmarker 128 -128 R0
SYMATTR InstName U1
SYMATTR Value V=10V
SYMBOL res 160 336 R0
SYMATTR InstName R1
SYMATTR Value 3.99k
SYMBOL res 368 272 R90
WINDOW 0 7 56 VBottom 2
WINDOW 3 25 56 VTop 2
SYMATTR InstName R2
SYMATTR Value 1.4275k
SYMBOL EIT_Semiconductors\\npn -80 272 R0
SYMATTR InstName Q3
SYMATTR Value CA3046
SYMBOL source-I -160 320 R0
SYMATTR InstName I1
SYMATTR Value 100µ
SYMBOL EIT_Semiconductors\\op_3 528 32 M180
WINDOW 39 1 109 Left 2
SYMATTR InstName U2
SYMATTR Value Vp=10 Vm=+2 Ilim=20m
SYMATTR SpiceLine Vos={os} A0=100k phir=45
SYMBOL res 608 240 R0
SYMATTR InstName R3
SYMATTR Value 1k
SYMBOL res 608 48 R0
SYMATTR InstName R4
SYMATTR Value 3k
TEXT -72 40 Left 2 !;op
TEXT 120 -184 Left 2 !.param RA=10k m=8 k=2 os=0
TEXT -104 80 Left 2 !.dc param os -4m 4m 1m
