Version 4
SHEET 1 940 680
WIRE 384 -320 272 -320
WIRE 432 -320 384 -320
WIRE 272 -304 272 -320
WIRE 384 -304 384 -320
WIRE 688 -224 656 -224
WIRE 720 -224 688 -224
WIRE 384 -208 384 -224
WIRE 560 -208 560 -304
WIRE 560 -208 384 -208
WIRE 576 -208 560 -208
WIRE 272 -160 272 -224
WIRE 560 -160 272 -160
WIRE 576 -160 560 -160
WIRE 112 -112 32 -112
WIRE 192 -112 112 -112
WIRE 464 -112 192 -112
WIRE 544 -112 464 -112
WIRE 560 -112 560 -160
WIRE 576 -112 560 -112
WIRE 720 -112 720 -224
WIRE 720 -112 656 -112
WIRE 192 -96 192 -112
WIRE 464 -96 464 -112
WIRE 272 -64 272 -160
WIRE 384 -64 384 -208
WIRE 112 -48 112 -112
WIRE 128 -48 112 -48
WIRE 544 -48 544 -112
WIRE 544 -48 528 -48
WIRE 32 -32 32 -112
WIRE 272 -32 272 -64
WIRE 384 -32 384 -64
WIRE 720 -16 672 -16
WIRE 672 0 672 -16
WIRE 192 16 192 0
WIRE 208 16 192 16
WIRE 464 16 464 0
WIRE 464 16 448 16
WIRE 32 80 32 48
WIRE 272 80 272 64
WIRE 336 80 272 80
WIRE 384 80 384 64
WIRE 384 80 336 80
WIRE 672 96 672 80
WIRE 560 112 32 112
WIRE 32 128 32 112
WIRE 336 144 336 80
WIRE 192 160 192 16
WIRE 464 160 464 16
WIRE 64 208 32 208
WIRE 128 208 64 208
WIRE 560 208 560 112
WIRE 560 208 528 208
WIRE 64 240 64 208
WIRE 336 256 336 224
WIRE 192 304 192 256
WIRE 208 304 192 304
WIRE 240 304 208 304
WIRE 432 304 320 304
WIRE 464 304 464 256
WIRE 464 304 432 304
WIRE 192 336 192 304
WIRE 464 336 464 304
WIRE 192 448 192 416
WIRE 464 448 464 416
FLAG 464 448 0
FLAG 192 448 0
FLAG 64 240 0
FLAG 208 304 e1
FLAG 432 304 e2
FLAG 32 80 0
FLAG 336 256 0
FLAG 272 -64 c1
FLAG 384 -64 c2
FLAG 640 -304 0
FLAG 656 -144 0
FLAG 688 -224 out
FLAG 672 96 0
SYMBOL EIT_Semiconductors\\npn 128 160 R0
SYMATTR InstName QA
SYMATTR Value CA3096_npn
SYMBOL EIT_Semiconductors\\npn 528 160 M0
SYMATTR InstName QB
SYMATTR Value CA3096_npn
SYMBOL res 336 288 R90
WINDOW 0 7 56 VBottom 2
WINDOW 3 25 56 VTop 2
SYMATTR InstName R1
SYMATTR Value 1k
SYMBOL source-I 192 416 R180
WINDOW 0 29 73 Left 2
WINDOW 3 29 17 Left 2
SYMATTR InstName IA1
SYMATTR Value 1m
SYMBOL source-I 464 416 R180
WINDOW 0 29 73 Left 2
WINDOW 3 29 17 Left 2
SYMATTR InstName IA2
SYMATTR Value 1m
SYMBOL res 256 -320 R0
SYMATTR InstName R2
SYMATTR Value {rc}
SYMBOL source-Vmarker 432 -320 M0
SYMATTR InstName U1
SYMBOL res 368 -320 R0
SYMATTR InstName R3
SYMATTR Value {rc}
SYMBOL source-V 32 112 R0
WINDOW 123 0 0 Left 2
WINDOW 39 0 0 Left 2
WINDOW 3 -88 168 Left 2
SYMATTR Value SINE(0 0.9 1k)
SYMATTR InstName VA
SYMBOL EIT_Semiconductors\\npn 128 -96 R0
SYMATTR InstName D1
SYMATTR Value CA3096_npn
SYMBOL EIT_Semiconductors\\npn 528 -96 M0
SYMATTR InstName D2
SYMATTR Value CA3096_npn
SYMBOL source-V 32 -48 R0
SYMATTR InstName V1
SYMATTR Value 2
SYMBOL EIT_Semiconductors\\npn 208 -32 R0
SYMATTR InstName Q1
SYMATTR Value CA3096_npn
SYMBOL EIT_Semiconductors\\npn 448 -32 M0
SYMATTR InstName Q2
SYMATTR Value CA3096_npn
SYMBOL source-I 336 224 R180
WINDOW 0 29 73 Left 2
WINDOW 3 29 17 Left 2
SYMATTR InstName I0
SYMATTR Value 1m
SYMBOL crtl-V-V 656 -240 R0
SYMATTR InstName E1
SYMATTR Value 1000T
SYMBOL res 656 -320 R90
WINDOW 0 7 56 VBottom 2
WINDOW 3 25 56 VTop 2
SYMATTR InstName R4
SYMATTR Value 1k
SYMBOL res 672 -128 R90
WINDOW 0 7 56 VBottom 2
WINDOW 3 25 56 VTop 2
SYMATTR InstName R5
SYMATTR Value 1k
SYMBOL source-V 672 -16 R0
WINDOW 123 0 0 Left 2
WINDOW 39 0 0 Left 2
SYMATTR InstName V2
SYMATTR Value SINE(0 1 100k)
TEXT -80 320 Left 2 ;.dc VA -0.9 0.9 10m
TEXT -56 -192 Left 2 ;.step i0 0 1m 100u
TEXT -88 360 Left 2 !.tran 20m
TEXT -24 -240 Left 2 !.param rc=10
