Version 4
SHEET 1 1156 680
WIRE 384 -288 272 -288
WIRE 432 -288 384 -288
WIRE 272 -272 272 -288
WIRE 384 -272 384 -288
WIRE 928 -192 896 -192
WIRE 944 -192 928 -192
WIRE 896 -176 896 -192
WIRE 272 -160 272 -192
WIRE 784 -160 272 -160
WIRE 816 -160 784 -160
WIRE 384 -144 384 -192
WIRE 672 -144 384 -144
WIRE 672 -112 672 -144
WIRE 816 -112 672 -112
WIRE 896 -80 896 -96
WIRE 272 -64 272 -160
WIRE 384 -64 384 -144
WIRE 272 -32 272 -64
WIRE 384 -32 384 -64
WIRE 672 -32 672 -112
WIRE 784 -32 784 -160
WIRE 1008 -32 960 -32
WIRE 960 0 960 -32
WIRE 192 16 96 16
WIRE 208 16 192 16
WIRE 464 16 448 16
WIRE 608 16 560 16
WIRE 880 16 848 16
WIRE 96 32 96 16
WIRE 464 48 464 16
WIRE 592 48 464 48
WIRE 272 80 272 64
WIRE 336 80 272 80
WIRE 384 80 384 64
WIRE 384 80 336 80
WIRE 672 80 672 64
WIRE 752 80 672 80
WIRE 784 80 784 64
WIRE 784 80 752 80
WIRE 192 96 192 16
WIRE 560 96 560 16
WIRE 560 96 192 96
WIRE 592 96 592 48
WIRE 880 96 880 16
WIRE 880 96 592 96
WIRE 960 112 960 80
WIRE 336 128 336 80
WIRE 576 128 336 128
WIRE 96 160 96 112
WIRE 464 160 464 48
WIRE 464 160 96 160
WIRE 96 176 96 160
WIRE 576 192 576 128
WIRE 752 192 752 80
WIRE 512 240 448 240
WIRE 848 240 816 240
WIRE 448 272 448 240
WIRE 96 288 96 256
WIRE 576 336 576 288
WIRE 592 336 576 336
WIRE 624 336 592 336
WIRE 720 336 704 336
WIRE 752 336 752 288
WIRE 752 336 720 336
WIRE 848 336 848 240
WIRE 576 368 576 336
WIRE 752 368 752 336
WIRE 448 432 448 352
WIRE 576 480 576 448
WIRE 752 480 752 448
FLAG 96 288 0
FLAG 272 -64 c1
FLAG 384 -64 c2
FLAG 752 480 0
FLAG 576 480 0
FLAG 448 432 0
FLAG 592 336 ec
FLAG 720 336 ed
FLAG 848 336 0
FLAG 896 -80 0
FLAG 928 -192 out
FLAG 960 112 0
SYMBOL res 256 -288 R0
SYMATTR InstName R2
SYMATTR Value 1k
SYMBOL source-Vmarker 432 -288 M0
SYMATTR InstName U1
SYMBOL res 368 -288 R0
SYMATTR InstName R3
SYMATTR Value 1k
SYMBOL source-V 96 16 R0
WINDOW 123 0 0 Left 2
WINDOW 39 0 0 Left 2
WINDOW 3 -158 -34 Left 2
SYMATTR Value SINE(0 0.3 110.7meg)
SYMATTR InstName VA
SYMBOL source-V 96 160 R0
SYMATTR InstName V1
SYMATTR Value 3
SYMBOL EIT_Semiconductors\\npn 208 -32 R0
SYMATTR InstName Q1
SYMBOL EIT_Semiconductors\\npn 448 -32 M0
SYMATTR InstName Q2
SYMBOL EIT_Semiconductors\\npn 848 -32 M0
SYMATTR InstName Q4
SYMBOL EIT_Semiconductors\\npn 608 -32 R0
SYMATTR InstName Q3
SYMBOL EIT_Semiconductors\\npn 512 192 R0
SYMATTR InstName QC
SYMBOL EIT_Semiconductors\\npn 816 192 M0
SYMATTR InstName QD
SYMBOL res 720 320 R90
WINDOW 0 7 56 VBottom 2
WINDOW 3 25 56 VTop 2
SYMATTR InstName R4
SYMATTR Value 1k
SYMBOL source-I 576 448 R180
WINDOW 0 29 73 Left 2
WINDOW 3 29 17 Left 2
SYMATTR InstName IB1
SYMATTR Value 1m
SYMBOL source-I 752 448 R180
WINDOW 0 29 73 Left 2
WINDOW 3 29 17 Left 2
SYMATTR InstName IB2
SYMATTR Value 1m
SYMBOL source-V 448 256 R0
WINDOW 123 0 0 Left 2
WINDOW 39 0 0 Left 2
WINDOW 3 -106 218 Left 2
SYMATTR Value SINE(0 0.9 100meg)
SYMATTR InstName VB
SYMBOL crtl-V-V 896 -192 R0
SYMATTR InstName E1
SYMATTR Value -1
SYMBOL source-V 960 -16 R0
WINDOW 123 0 0 Left 2
WINDOW 39 0 0 Left 2
SYMATTR InstName V2
SYMATTR Value SINE(0 1 1G)
TEXT 40 -264 Left 2 !.tran 1u
