Version 4
SHEET 1 1156 680
WIRE 384 -288 272 -288
WIRE 432 -288 384 -288
WIRE 272 -272 272 -288
WIRE 384 -272 384 -288
WIRE 272 -160 272 -192
WIRE 784 -160 272 -160
WIRE 384 -144 384 -192
WIRE 672 -144 384 -144
WIRE 112 -112 32 -112
WIRE 192 -112 112 -112
WIRE 464 -112 192 -112
WIRE 544 -112 464 -112
WIRE 192 -96 192 -112
WIRE 464 -96 464 -112
WIRE 272 -64 272 -160
WIRE 384 -64 384 -144
WIRE 112 -48 112 -112
WIRE 128 -48 112 -48
WIRE 544 -48 544 -112
WIRE 544 -48 528 -48
WIRE 32 -32 32 -112
WIRE 272 -32 272 -64
WIRE 384 -32 384 -64
WIRE 672 -32 672 -144
WIRE 784 -32 784 -160
WIRE 192 16 192 0
WIRE 208 16 192 16
WIRE 464 16 464 0
WIRE 464 16 448 16
WIRE 608 16 560 16
WIRE 880 16 848 16
WIRE 464 48 464 16
WIRE 592 48 464 48
WIRE 32 80 32 48
WIRE 272 80 272 64
WIRE 336 80 272 80
WIRE 384 80 384 64
WIRE 384 80 336 80
WIRE 672 80 672 64
WIRE 752 80 672 80
WIRE 784 80 784 64
WIRE 784 80 752 80
WIRE 192 96 192 16
WIRE 560 96 560 16
WIRE 560 96 192 96
WIRE 592 96 592 48
WIRE 880 96 880 16
WIRE 880 96 592 96
WIRE 752 112 752 80
WIRE 912 112 752 112
WIRE 336 128 336 80
WIRE 736 128 336 128
WIRE 560 144 32 144
WIRE 32 160 32 144
WIRE 192 192 192 96
WIRE 464 192 464 48
WIRE 736 192 736 128
WIRE 912 192 912 112
WIRE 64 240 32 240
WIRE 128 240 64 240
WIRE 560 240 560 144
WIRE 560 240 528 240
WIRE 672 240 608 240
WIRE 1008 240 976 240
WIRE 64 272 64 240
WIRE 608 272 608 240
WIRE 192 336 192 288
WIRE 208 336 192 336
WIRE 240 336 208 336
WIRE 432 336 320 336
WIRE 464 336 464 288
WIRE 464 336 432 336
WIRE 736 336 736 288
WIRE 752 336 736 336
WIRE 784 336 752 336
WIRE 880 336 864 336
WIRE 912 336 912 288
WIRE 912 336 880 336
WIRE 1008 336 1008 240
WIRE 192 368 192 336
WIRE 464 368 464 336
WIRE 736 368 736 336
WIRE 912 368 912 336
WIRE 608 432 608 352
WIRE 192 480 192 448
WIRE 464 480 464 448
WIRE 736 480 736 448
WIRE 912 480 912 448
FLAG 464 480 0
FLAG 192 480 0
FLAG 64 272 0
FLAG 208 336 ea
FLAG 432 336 eb
FLAG 32 80 0
FLAG 272 -64 c1
FLAG 384 -64 c2
FLAG 912 480 0
FLAG 736 480 0
FLAG 608 432 0
FLAG 752 336 ec
FLAG 880 336 ed
FLAG 1008 336 0
SYMBOL EIT_Semiconductors\\npn 128 192 R0
SYMATTR InstName QA
SYMBOL EIT_Semiconductors\\npn 528 192 M0
SYMATTR InstName QB
SYMBOL res 336 320 R90
WINDOW 0 7 56 VBottom 2
WINDOW 3 25 56 VTop 2
SYMATTR InstName R1
SYMATTR Value 1k
SYMBOL source-I 192 448 R180
WINDOW 0 29 73 Left 2
WINDOW 3 29 17 Left 2
SYMATTR InstName IA1
SYMATTR Value 1m
SYMBOL source-I 464 448 R180
WINDOW 0 29 73 Left 2
WINDOW 3 29 17 Left 2
SYMATTR InstName IA2
SYMATTR Value 1m
SYMBOL res 256 -288 R0
SYMATTR InstName R2
SYMATTR Value 1k
SYMBOL source-Vmarker 432 -288 M0
SYMATTR InstName U1
SYMBOL res 368 -288 R0
SYMATTR InstName R3
SYMATTR Value 1k
SYMBOL source-V 32 144 R0
WINDOW 123 0 0 Left 2
WINDOW 39 0 0 Left 2
SYMATTR InstName VA
SYMATTR Value 0
SYMBOL EIT_Semiconductors\\npn 128 -96 R0
SYMATTR InstName D1
SYMBOL EIT_Semiconductors\\npn 528 -96 M0
SYMATTR InstName D2
SYMBOL source-V 32 -48 R0
SYMATTR InstName V1
SYMATTR Value 3
SYMBOL EIT_Semiconductors\\npn 208 -32 R0
SYMATTR InstName Q1
SYMBOL EIT_Semiconductors\\npn 448 -32 M0
SYMATTR InstName Q2
SYMBOL EIT_Semiconductors\\npn 848 -32 M0
SYMATTR InstName Q4
SYMBOL EIT_Semiconductors\\npn 608 -32 R0
SYMATTR InstName Q3
SYMBOL EIT_Semiconductors\\npn 672 192 R0
SYMATTR InstName QC
SYMBOL EIT_Semiconductors\\npn 976 192 M0
SYMATTR InstName QD
SYMBOL res 880 320 R90
WINDOW 0 7 56 VBottom 2
WINDOW 3 25 56 VTop 2
SYMATTR InstName R4
SYMATTR Value 1k
SYMBOL source-I 736 448 R180
WINDOW 0 29 73 Left 2
WINDOW 3 29 17 Left 2
SYMATTR InstName IB1
SYMATTR Value 1m
SYMBOL source-I 912 448 R180
WINDOW 0 29 73 Left 2
WINDOW 3 29 17 Left 2
SYMATTR InstName IB2
SYMATTR Value 1m
SYMBOL source-V 608 256 R0
WINDOW 123 0 0 Left 2
WINDOW 39 0 0 Left 2
SYMATTR InstName VB
SYMATTR Value 0
TEXT -56 -192 Left 2 !.step VB -0.9 0.9 0.1
TEXT -48 -232 Left 2 !.dc VA -0.9 0.9 10m
