Version 4
SHEET 1 1212 760
WIRE 112 -176 16 -176
WIRE 176 -176 112 -176
WIRE 432 -176 176 -176
WIRE 912 -176 512 -176
WIRE 512 -112 256 -112
WIRE 608 -112 512 -112
WIRE 720 -112 608 -112
WIRE 848 -112 720 -112
WIRE -64 -96 -64 -176
WIRE 608 -80 608 -112
WIRE 848 -80 848 -112
WIRE 256 -48 256 -112
WIRE 720 0 720 -112
WIRE -64 16 -64 -16
WIRE 848 32 848 0
WIRE 608 48 608 0
WIRE 656 48 608 48
WIRE 256 112 256 32
WIRE 256 112 192 112
WIRE 320 112 256 112
WIRE 112 160 112 -176
WIRE 128 160 112 160
WIRE 400 160 384 160
WIRE 720 160 720 96
WIRE 848 160 720 160
WIRE 912 160 912 -176
WIRE 912 160 848 160
WIRE 528 176 448 176
WIRE 608 176 608 48
WIRE 608 176 592 176
WIRE 400 224 400 160
WIRE 720 224 720 160
WIRE 512 240 512 -112
WIRE 848 240 848 160
WIRE 608 272 608 176
WIRE 624 272 608 272
WIRE 656 272 624 272
WIRE 320 288 320 208
WIRE 448 288 448 176
WIRE 448 288 320 288
WIRE 192 304 192 208
WIRE 256 304 192 304
WIRE 192 320 192 304
WIRE 320 320 320 288
WIRE 608 320 608 272
WIRE 848 352 848 320
WIRE 256 368 256 304
WIRE 512 368 512 336
WIRE 544 368 512 368
WIRE 512 400 512 368
WIRE 192 496 192 416
WIRE 320 496 320 416
WIRE 320 496 192 496
WIRE 512 496 512 480
WIRE 512 496 320 496
WIRE 608 496 608 416
WIRE 608 496 512 496
WIRE 720 496 720 320
WIRE 720 496 608 496
WIRE 848 496 720 496
WIRE 848 592 848 576
FLAG 848 592 0
FLAG 848 32 0
FLAG 400 224 0
FLAG 624 272 o
FLAG -64 16 0
FLAG 848 160 out
FLAG 176 -176 a
FLAG 848 352 0
SYMBOL EIT_Semiconductors\\pnp_o 128 112 R0
WINDOW 3 50 63 Left 2
SYMATTR Value CA3096_pnp
SYMATTR InstName Q1
SYMBOL EIT_Semiconductors\\pnp_o 384 112 M0
WINDOW 3 -36 -26 Left 2
SYMATTR Value CA3096_pnp
SYMATTR InstName Q2
SYMBOL EIT_Semiconductors\\npn 256 320 M0
SYMATTR InstName Q3
SYMATTR Value CA3046
SYMBOL EIT_Semiconductors\\npn 256 320 R0
SYMATTR InstName Q4
SYMATTR Value CA3046
SYMBOL EIT_Semiconductors\\npn 448 240 R0
SYMATTR InstName Q5
SYMATTR Value CA3046
SYMBOL EIT_Semiconductors\\npn 544 320 R0
SYMATTR InstName Q6
SYMATTR Value CA3046
SYMBOL EIT_Semiconductors\\npn 656 0 R0
SYMATTR InstName Q7
SYMATTR Value CA3046
SYMBOL EIT_Semiconductors\\pnp_o 656 224 R0
WINDOW 3 -37 -11 Left 2
SYMATTR Value CA3096_pnp
SYMATTR InstName Q8
SYMBOL source-V 848 480 R0
SYMATTR InstName V1
SYMATTR Value -10
SYMBOL source-V 848 -96 R0
SYMATTR InstName V2
SYMATTR Value +10
SYMBOL cap 592 160 R90
WINDOW 0 0 32 VBottom 2
WINDOW 3 32 32 VTop 2
SYMATTR InstName C1
SYMATTR Value 33p
SYMBOL source-I 256 32 R180
WINDOW 0 29 73 Left 2
WINDOW 3 29 17 Left 2
SYMATTR InstName I1
SYMATTR Value 20µ
SYMBOL source-I 608 0 R180
WINDOW 0 29 73 Left 2
WINDOW 3 29 17 Left 2
SYMATTR InstName I2
SYMATTR Value 200µ
SYMBOL source-I 512 480 R180
WINDOW 0 29 73 Left 2
WINDOW 3 29 17 Left 2
SYMATTR InstName I3
SYMATTR Value 20µ
SYMBOL res -80 -160 R270
WINDOW 0 25 56 VTop 2
WINDOW 3 7 56 VBottom 2
SYMATTR InstName R1
SYMATTR Value 10k
SYMBOL res 416 -160 R270
WINDOW 0 25 56 VTop 2
WINDOW 3 7 56 VBottom 2
SYMATTR InstName R2
SYMATTR Value {k*10k}
SYMBOL source-V -64 -112 R0
WINDOW 123 28 56 Left 2
WINDOW 39 0 0 Left 2
SYMATTR InstName V3
SYMATTR Value ""
SYMATTR Value2 AC 1
SYMBOL source-I 848 320 R180
WINDOW 0 29 73 Left 2
WINDOW 3 29 17 Left 2
SYMATTR InstName I4
SYMATTR Value 200µ
TEXT -112 72 Left 2 !.ac dec 30 0.1 100meg
TEXT -96 104 Left 2 !;op
TEXT -72 160 Left 2 !.param k=1
TEXT -104 248 Left 2 !.step param k list 1 2 10 100 1000
