Version 4
SHEET 1 1212 760
WIRE -32 -448 -64 -448
WIRE 0 -448 -32 -448
WIRE 112 -448 80 -448
WIRE 176 -448 112 -448
WIRE 432 -448 176 -448
WIRE 912 -448 512 -448
WIRE 256 -336 160 -336
WIRE 448 -336 256 -336
WIRE 512 -336 448 -336
WIRE 608 -336 512 -336
WIRE 768 -336 608 -336
WIRE 848 -336 768 -336
WIRE -64 -240 -64 -448
WIRE 160 -240 160 -256
WIRE 256 -240 256 -256
WIRE 448 -240 448 -256
WIRE 608 -240 608 -256
WIRE 848 -224 848 -336
WIRE 320 -192 224 -192
WIRE 368 -192 320 -192
WIRE 384 -192 368 -192
WIRE 544 -192 384 -192
WIRE 160 -144 80 -144
WIRE 768 -144 768 -336
WIRE -64 -128 -64 -160
WIRE 368 -112 368 -192
WIRE 448 -112 448 -144
WIRE 448 -112 368 -112
WIRE 848 -112 848 -144
WIRE 608 -96 608 -144
WIRE 672 -96 608 -96
WIRE 704 -96 672 -96
WIRE 608 -80 608 -96
WIRE 672 -32 672 -96
WIRE 720 -32 672 -32
WIRE 720 0 720 -32
WIRE 448 32 448 -112
WIRE 608 48 608 16
WIRE 720 96 720 80
WIRE 720 96 672 96
WIRE 256 112 256 -144
WIRE 256 112 192 112
WIRE 320 112 256 112
WIRE 112 160 112 -448
WIRE 128 160 112 160
WIRE 400 160 384 160
WIRE 608 160 608 144
WIRE 672 160 672 96
WIRE 672 160 608 160
WIRE 768 160 768 -48
WIRE 768 160 720 160
WIRE 848 160 768 160
WIRE 912 160 912 -448
WIRE 912 160 848 160
WIRE 528 176 448 176
WIRE 608 176 608 160
WIRE 608 176 592 176
WIRE 912 192 912 160
WIRE 400 224 400 160
WIRE 720 224 720 160
WIRE 512 240 512 -336
WIRE 848 240 848 160
WIRE 608 272 608 176
WIRE 624 272 608 272
WIRE 656 272 624 272
WIRE 320 288 320 208
WIRE 448 288 448 176
WIRE 448 288 320 288
WIRE 608 320 608 272
WIRE 912 320 912 272
WIRE 80 336 80 -144
WIRE 384 336 80 336
WIRE 848 352 848 320
WIRE 512 368 512 336
WIRE 544 368 512 368
WIRE 192 384 192 208
WIRE 256 384 192 384
WIRE 720 384 720 320
WIRE 848 384 720 384
WIRE 192 400 192 384
WIRE 320 400 320 288
WIRE 384 400 384 336
WIRE 448 400 384 400
WIRE 384 416 384 400
WIRE 512 416 512 368
WIRE 256 448 256 384
WIRE 448 464 448 400
WIRE 848 480 848 464
WIRE 192 544 192 496
WIRE 320 544 320 496
WIRE 320 544 192 544
WIRE 384 544 384 512
WIRE 384 544 320 544
WIRE 512 544 512 512
WIRE 512 544 384 544
WIRE 608 544 608 416
WIRE 608 544 512 544
WIRE 720 544 720 384
WIRE 720 544 608 544
FLAG 848 480 0
FLAG 848 -112 0
FLAG 400 224 0
FLAG 624 272 o
FLAG -64 -128 0
FLAG 848 160 out
FLAG 176 -448 a
FLAG 848 352 0
FLAG 448 112 0
FLAG -32 -448 in
FLAG 912 320 0
SYMBOL EIT_Semiconductors\\pnp_o 128 112 R0
WINDOW 3 50 63 Left 2
SYMATTR Value CA3096_pnp
SYMATTR InstName Q1
SYMBOL EIT_Semiconductors\\pnp_o 384 112 M0
WINDOW 3 -36 -26 Left 2
SYMATTR Value CA3096_pnp
SYMATTR InstName Q2
SYMBOL EIT_Semiconductors\\npn 256 400 M0
SYMATTR InstName Q3
SYMATTR Value CA3046
SYMBOL EIT_Semiconductors\\npn 256 400 R0
SYMATTR InstName Q4
SYMATTR Value CA3046
SYMBOL EIT_Semiconductors\\npn 448 240 R0
SYMATTR InstName Q5
SYMATTR Value CA3046
SYMBOL EIT_Semiconductors\\npn 544 320 R0
SYMATTR InstName Q6
SYMATTR Value CA3046
SYMBOL EIT_Semiconductors\\npn 704 -144 R0
SYMATTR InstName Q7
SYMATTR Value CA3046
SYMBOL EIT_Semiconductors\\pnp_o 656 224 R0
WINDOW 3 -37 -11 Left 2
SYMATTR Value CA3096_pnp
SYMATTR InstName Q8
SYMBOL source-V 848 368 R0
SYMATTR InstName V1
SYMATTR Value -10
SYMBOL source-V 848 -240 R0
SYMATTR InstName V2
SYMATTR Value +10
SYMBOL cap 592 160 R90
WINDOW 0 0 32 VBottom 2
WINDOW 3 32 32 VTop 2
SYMATTR InstName C1
SYMATTR Value 1p
SYMBOL res -16 -432 R270
WINDOW 0 25 56 VTop 2
WINDOW 3 7 56 VBottom 2
SYMATTR InstName R1
SYMATTR Value 10k
SYMBOL res 416 -432 R270
WINDOW 0 25 56 VTop 2
WINDOW 3 7 56 VBottom 2
SYMATTR InstName R2
SYMATTR Value {k*10k}
SYMBOL source-V -64 -256 R0
WINDOW 3 -172 157 Left 2
WINDOW 123 28 84 Left 2
WINDOW 39 0 0 Left 2
SYMATTR InstName V3
SYMATTR Value PULSE(-2 2 5u 1p 1p 15u 30u)
SYMATTR Value2 AC 1
SYMBOL source-I 848 320 R180
WINDOW 0 29 73 Left 2
WINDOW 3 29 17 Left 2
SYMATTR InstName I4
SYMATTR Value 200f
SYMBOL EIT_Semiconductors\\pnp_o 320 -240 M0
WINDOW 3 9 -123 Left 2
SYMATTR Value CA3096_pnp
SYMATTR InstName Q9
SYMBOL EIT_Semiconductors\\pnp_o 544 -240 R0
WINDOW 3 2 -122 Left 2
SYMATTR Value CA3096_pnp
SYMATTR InstName Q10
SYMBOL res 592 -352 R0
SYMATTR InstName R3
SYMATTR Value 1k
SYMBOL res 240 -352 R0
SYMATTR InstName R4
SYMATTR Value 13k
SYMBOL EIT_Semiconductors\\pnp_o 384 -240 R0
WINDOW 3 -18 -116 Left 2
SYMATTR Value CA3096_pnp
SYMATTR InstName Q11
SYMBOL res 432 -352 R0
SYMATTR InstName R5
SYMATTR Value 1k
SYMBOL res 432 16 R0
SYMATTR InstName R6
SYMATTR Value 45k
SYMBOL EIT_Semiconductors\\npn 448 416 M0
SYMATTR InstName Q12
SYMATTR Value CA3046
SYMBOL EIT_Semiconductors\\npn 448 416 R0
SYMATTR InstName Q13
SYMATTR Value CA3046
SYMBOL EIT_Semiconductors\\pnp_o 224 -240 M0
WINDOW 3 9 -123 Left 2
SYMATTR Value CA3096_pnp
SYMATTR InstName Q14
SYMBOL res 144 -352 R0
SYMATTR InstName R7
SYMATTR Value 13k
SYMBOL res 896 176 R0
SYMATTR InstName R8
SYMATTR Value 560
SYMBOL EIT_Semiconductors\\pnp_o 672 48 M0
WINDOW 3 -37 -11 Left 2
SYMATTR Value CA3096_pnp
SYMATTR InstName Q15
SYMBOL EIT_Semiconductors\\npn 672 -80 M0
SYMATTR InstName Q16
SYMATTR Value CA3046
SYMBOL res 704 -16 R0
SYMATTR InstName R9
SYMATTR Value {jmp}
TEXT -112 392 Left 2 !;ac dec 30 0.1 100meg
TEXT -112 424 Left 2 !;op
TEXT -144 136 Left 2 !.param k=1 jmp=1T
TEXT -168 208 Left 2 ;.step param k list 1 2 10 100 1000
TEXT -112 360 Left 2 !.tran 50u
TEXT -184 80 Left 2 ;.step param jmp list 1 1T
