Version 4
SHEET 1 1212 760
WIRE -32 -448 -64 -448
WIRE 0 -448 -32 -448
WIRE 112 -448 80 -448
WIRE 176 -448 112 -448
WIRE 432 -448 176 -448
WIRE 1024 -448 512 -448
WIRE 256 -336 160 -336
WIRE 448 -336 256 -336
WIRE 512 -336 448 -336
WIRE 608 -336 512 -336
WIRE 880 -336 608 -336
WIRE 960 -336 880 -336
WIRE -64 -240 -64 -448
WIRE 160 -240 160 -256
WIRE 256 -240 256 -256
WIRE 448 -240 448 -256
WIRE 608 -240 608 -256
WIRE 960 -224 960 -336
WIRE 320 -192 224 -192
WIRE 368 -192 320 -192
WIRE 384 -192 368 -192
WIRE 544 -192 384 -192
WIRE 160 -144 80 -144
WIRE 880 -144 880 -336
WIRE -64 -128 -64 -160
WIRE 368 -112 368 -192
WIRE 448 -112 448 -144
WIRE 448 -112 368 -112
WIRE 960 -112 960 -144
WIRE 608 -96 608 -144
WIRE 672 -96 608 -96
WIRE 784 -96 672 -96
WIRE 816 -96 784 -96
WIRE 608 -80 608 -96
WIRE 256 -64 256 -144
WIRE 256 -64 192 -64
WIRE 784 -48 784 -96
WIRE 192 -32 192 -64
WIRE 672 -32 672 -96
WIRE 720 -32 672 -32
WIRE 720 -16 720 -32
WIRE 880 0 880 -48
WIRE 880 0 848 0
WIRE 608 16 544 16
WIRE 448 32 448 -112
WIRE 880 32 880 0
WIRE 608 48 608 16
WIRE 192 64 192 32
WIRE 720 96 720 64
WIRE 720 96 672 96
WIRE 256 112 256 -64
WIRE 256 112 192 112
WIRE 320 112 256 112
WIRE 784 128 784 48
WIRE 784 128 736 128
WIRE 832 128 784 128
WIRE 880 128 880 112
WIRE 880 128 832 128
WIRE 960 128 880 128
WIRE 1024 128 1024 -448
WIRE 1024 128 960 128
WIRE 112 160 112 -448
WIRE 128 160 112 160
WIRE 400 160 384 160
WIRE 608 160 608 144
WIRE 672 160 672 96
WIRE 672 160 608 160
WIRE 528 176 448 176
WIRE 608 176 608 160
WIRE 608 176 592 176
WIRE 736 176 736 128
WIRE 1024 192 1024 128
WIRE 400 224 400 160
WIRE 832 224 832 208
WIRE 832 224 800 224
WIRE 512 240 512 -336
WIRE 960 240 960 128
WIRE 832 272 832 224
WIRE 320 288 320 208
WIRE 352 288 320 288
WIRE 448 288 448 176
WIRE 448 288 352 288
WIRE 608 320 608 176
WIRE 624 320 608 320
WIRE 768 320 624 320
WIRE 1024 320 1024 272
WIRE 80 336 80 -144
WIRE 384 336 80 336
WIRE 960 352 960 320
WIRE 512 368 512 336
WIRE 544 368 512 368
WIRE 192 384 192 208
WIRE 256 384 192 384
WIRE 832 384 832 368
WIRE 960 384 832 384
WIRE 192 400 192 384
WIRE 320 400 320 288
WIRE 384 400 384 336
WIRE 448 400 384 400
WIRE 672 400 640 400
WIRE 736 400 736 272
WIRE 800 400 736 400
WIRE 384 416 384 400
WIRE 512 416 512 368
WIRE 672 416 672 400
WIRE 800 416 800 400
WIRE 256 448 256 384
WIRE 448 464 448 400
WIRE 736 464 736 400
WIRE 960 480 960 464
WIRE 192 544 192 496
WIRE 320 544 320 496
WIRE 320 544 192 544
WIRE 384 544 384 512
WIRE 384 544 320 544
WIRE 512 544 512 512
WIRE 512 544 384 544
WIRE 608 544 608 416
WIRE 608 544 512 544
WIRE 672 544 672 512
WIRE 672 544 608 544
WIRE 800 544 800 512
WIRE 800 544 672 544
WIRE 832 544 832 384
WIRE 832 544 800 544
WIRE 352 592 352 288
WIRE 640 592 640 400
WIRE 640 592 352 592
FLAG 960 480 0
FLAG 960 -112 0
FLAG 400 224 0
FLAG 624 320 o
FLAG -64 -128 0
FLAG 960 128 out
FLAG 176 -448 a
FLAG 960 352 0
FLAG 448 112 0
FLAG -32 -448 in
FLAG 1024 320 0
FLAG 192 64 0
SYMBOL EIT_Semiconductors\\pnp_o 128 112 R0
WINDOW 3 50 63 Left 2
SYMATTR Value CA3096_pnp
SYMATTR InstName Q1
SYMBOL EIT_Semiconductors\\pnp_o 384 112 M0
WINDOW 3 -36 -26 Left 2
SYMATTR Value CA3096_pnp
SYMATTR InstName Q2
SYMBOL EIT_Semiconductors\\npn 256 400 M0
SYMATTR InstName Q3
SYMATTR Value CA3046
SYMBOL EIT_Semiconductors\\npn 256 400 R0
SYMATTR InstName Q4
SYMATTR Value CA3046
SYMBOL EIT_Semiconductors\\npn 448 240 R0
SYMATTR InstName Q5
SYMATTR Value CA3046
SYMBOL EIT_Semiconductors\\npn 544 320 R0
SYMATTR InstName Q6
SYMATTR Value CA3046
SYMBOL EIT_Semiconductors\\npn 816 -144 R0
SYMATTR InstName Q7
SYMATTR Value CA3046 10
SYMBOL EIT_Semiconductors\\pnp_o 768 272 R0
WINDOW 3 -37 -11 Left 2
SYMATTR Value CA3096_pnp 10
SYMATTR InstName Q8
SYMBOL source-V 960 368 R0
SYMATTR InstName V1
SYMATTR Value -10
SYMBOL source-V 960 -240 R0
SYMATTR InstName V2
SYMATTR Value +10
SYMBOL cap 592 160 R90
WINDOW 0 0 32 VBottom 2
WINDOW 3 32 32 VTop 2
SYMATTR InstName C1
SYMATTR Value 30p
SYMBOL res -16 -432 R270
WINDOW 0 25 56 VTop 2
WINDOW 3 7 56 VBottom 2
SYMATTR InstName R1
SYMATTR Value 10k
SYMBOL res 416 -432 R270
WINDOW 0 25 56 VTop 2
WINDOW 3 7 56 VBottom 2
SYMATTR InstName R2
SYMATTR Value {k*10k}
SYMBOL source-V -64 -256 R0
WINDOW 3 -172 157 Left 2
WINDOW 123 28 84 Left 2
WINDOW 39 0 0 Left 2
SYMATTR Value PULSE(-2 2 5u 1p 1p 35u 70u)
SYMATTR Value2 AC 1
SYMATTR InstName V3
SYMBOL source-I 960 320 R180
WINDOW 0 29 73 Left 2
WINDOW 3 29 17 Left 2
SYMATTR InstName I4
SYMATTR Value 200f
SYMBOL EIT_Semiconductors\\pnp_o 320 -240 M0
WINDOW 3 9 -123 Left 2
SYMATTR Value CA3096_pnp
SYMATTR InstName Q9
SYMBOL EIT_Semiconductors\\pnp_o 544 -240 R0
WINDOW 3 2 -122 Left 2
SYMATTR Value CA3096_pnp
SYMATTR InstName Q10
SYMBOL res 592 -352 R0
SYMATTR InstName R3
SYMATTR Value 1k
SYMBOL res 240 -352 R0
SYMATTR InstName R4
SYMATTR Value 13k
SYMBOL EIT_Semiconductors\\pnp_o 384 -240 R0
WINDOW 3 -18 -116 Left 2
SYMATTR Value CA3096_pnp
SYMATTR InstName Q11
SYMBOL res 432 -352 R0
SYMATTR InstName R5
SYMATTR Value 1k
SYMBOL res 432 16 R0
SYMATTR InstName R6
SYMATTR Value 10k
SYMBOL EIT_Semiconductors\\npn 448 416 M0
SYMATTR InstName Q12
SYMATTR Value CA3046
SYMBOL EIT_Semiconductors\\npn 448 416 R0
SYMATTR InstName Q13
SYMATTR Value CA3046
SYMBOL EIT_Semiconductors\\pnp_o 224 -240 M0
WINDOW 3 9 -123 Left 2
SYMATTR Value CA3096_pnp
SYMATTR InstName Q14
SYMBOL res 144 -352 R0
SYMATTR InstName R7
SYMATTR Value 13k
SYMBOL res 1008 176 R0
SYMATTR InstName R8
SYMATTR Value 1m
SYMBOL EIT_Semiconductors\\pnp_o 672 48 M0
WINDOW 3 -37 -11 Left 2
SYMATTR Value CA3096_pnp
SYMATTR InstName Q15
SYMBOL EIT_Semiconductors\\npn 672 -80 M0
SYMATTR InstName Q16
SYMATTR Value CA3046
SYMBOL res 704 -32 R0
SYMATTR InstName R9
SYMATTR Value {jmp}
SYMBOL cap 176 -32 R0
SYMATTR InstName C2
SYMATTR Value 1f
SYMBOL res 864 16 R0
SYMATTR InstName R10
SYMATTR Value 33
SYMBOL res 816 112 R0
SYMATTR InstName R11
SYMATTR Value 33
SYMBOL EIT_Semiconductors\\npn 848 -48 M0
SYMATTR InstName Q17
SYMATTR Value CA3046
SYMBOL EIT_Semiconductors\\pnp_o 800 176 M0
WINDOW 3 -36 -26 Left 2
SYMATTR Value CA3096_pnp
SYMATTR InstName Q18
SYMBOL EIT_Semiconductors\\npn 736 416 M0
SYMATTR InstName Q19
SYMATTR Value CA3046
SYMBOL EIT_Semiconductors\\npn 736 416 R0
SYMATTR InstName Q20
SYMATTR Value CA3046
TEXT -112 392 Left 2 !;ac dec 30 0.1 100meg
TEXT -112 424 Left 2 !;op
TEXT -144 136 Left 2 !.param k=1 jmp=1T
TEXT -168 208 Left 2 ;.step param k list 1 2 10 100 1000
TEXT -112 360 Left 2 !.tran 150u
TEXT -184 80 Left 2 ;.step param jmp list 1 1T
