Version 4
SHEET 1 1212 760
WIRE 112 -448 16 -448
WIRE 176 -448 112 -448
WIRE 432 -448 176 -448
WIRE 944 -448 512 -448
WIRE 288 -400 256 -400
WIRE 704 -400 368 -400
WIRE -64 -368 -64 -448
WIRE 544 -336 448 -336
WIRE 640 -336 544 -336
WIRE 752 -336 640 -336
WIRE 880 -336 752 -336
WIRE 432 -288 416 -288
WIRE 256 -256 256 -400
WIRE 256 -256 160 -256
WIRE -64 -240 -64 -368
WIRE 160 -240 160 -256
WIRE 256 -240 256 -256
WIRE 432 -240 432 -288
WIRE 432 -240 416 -240
WIRE 448 -240 448 -256
WIRE 448 -240 432 -240
WIRE 544 -240 544 -256
WIRE 640 -240 640 -256
WIRE 688 -240 640 -240
WIRE 704 -240 704 -400
WIRE 704 -240 688 -240
WIRE 880 -224 880 -336
WIRE 320 -192 224 -192
WIRE 352 -192 320 -192
WIRE 464 -192 352 -192
WIRE 480 -192 464 -192
WIRE 576 -192 480 -192
WIRE 160 -144 80 -144
WIRE 752 -144 752 -336
WIRE -64 -128 -64 -160
WIRE 464 -112 464 -192
WIRE 544 -112 544 -144
WIRE 544 -112 464 -112
WIRE 880 -112 880 -144
WIRE 336 -96 336 -288
WIRE 416 -96 416 -144
WIRE 416 -96 336 -96
WIRE 640 -96 640 -144
WIRE 688 -96 640 -96
WIRE 416 -80 416 -96
WIRE 480 -80 416 -80
WIRE 416 -64 416 -80
WIRE 544 -64 544 -112
WIRE 480 -16 480 -80
WIRE 256 112 256 -144
WIRE 256 112 192 112
WIRE 320 112 256 112
WIRE 416 128 416 32
WIRE 544 128 544 112
WIRE 544 128 416 128
WIRE 816 128 544 128
WIRE 112 160 112 -448
WIRE 128 160 112 160
WIRE 400 160 384 160
WIRE 752 160 752 -48
WIRE 880 160 752 160
WIRE 944 160 944 -448
WIRE 944 160 880 160
WIRE 560 176 448 176
WIRE 640 176 640 -96
WIRE 640 176 624 176
WIRE 400 224 400 160
WIRE 752 224 752 160
WIRE 640 240 640 176
WIRE 640 240 512 240
WIRE 640 272 640 240
WIRE 656 272 640 272
WIRE 688 272 656 272
WIRE 320 288 320 208
WIRE 368 288 320 288
WIRE 448 288 448 176
WIRE 448 288 368 288
WIRE 640 320 640 272
WIRE 80 336 80 -144
WIRE 384 336 80 336
WIRE 512 368 512 336
WIRE 544 368 512 368
WIRE 576 368 544 368
WIRE 192 384 192 208
WIRE 256 384 192 384
WIRE 752 384 752 320
WIRE 816 384 816 128
WIRE 816 384 752 384
WIRE 880 384 816 384
WIRE 192 400 192 384
WIRE 320 400 320 288
WIRE 384 400 384 336
WIRE 448 400 384 400
WIRE 384 416 384 400
WIRE 512 416 512 368
WIRE 256 448 256 384
WIRE 448 464 448 400
WIRE 880 480 880 464
WIRE 192 544 192 496
WIRE 320 544 320 496
WIRE 320 544 192 544
WIRE 384 544 384 512
WIRE 384 544 320 544
WIRE 512 544 512 512
WIRE 512 544 384 544
WIRE 640 544 640 416
WIRE 640 544 512 544
WIRE 704 544 640 544
WIRE 752 544 752 384
WIRE 752 544 704 544
FLAG 880 480 0
FLAG 880 -112 0
FLAG 400 224 0
FLAG 656 272 o
FLAG -64 -128 0
FLAG 880 160 out
FLAG 176 -448 a
FLAG -64 -368 1
FLAG 704 544 minus
FLAG 368 288 b5
FLAG 544 368 b6
FLAG 688 -240 e10
SYMBOL EIT_Semiconductors\\pnp_o 128 112 R0
WINDOW 3 50 63 Left 2
SYMATTR Value CA3096_pnp
SYMATTR InstName Q1
SYMBOL EIT_Semiconductors\\pnp_o 384 112 M0
WINDOW 3 -36 -26 Left 2
SYMATTR Value CA3096_pnp
SYMATTR InstName Q2
SYMBOL EIT_Semiconductors\\npn 256 400 M0
SYMATTR InstName Q3
SYMATTR Value CA3046
SYMBOL EIT_Semiconductors\\npn 256 400 R0
SYMATTR InstName Q4
SYMATTR Value CA3046
SYMBOL EIT_Semiconductors\\npn 448 240 R0
SYMATTR InstName Q5
SYMATTR Value CA3046
SYMBOL EIT_Semiconductors\\npn 576 320 R0
SYMATTR InstName Q6
SYMATTR Value CA3046
SYMBOL EIT_Semiconductors\\npn 688 -144 R0
SYMATTR InstName Q7
SYMATTR Value CA3046
SYMBOL EIT_Semiconductors\\pnp_o 688 224 R0
WINDOW 3 -37 -11 Left 2
SYMATTR Value CA3096_pnp
SYMATTR InstName Q8
SYMBOL source-V 880 368 R0
SYMATTR InstName V1
SYMATTR Value -10
SYMBOL source-V 880 -240 R0
SYMATTR InstName V2
SYMATTR Value +10
SYMBOL cap 624 160 R90
WINDOW 0 0 32 VBottom 2
WINDOW 3 32 32 VTop 2
SYMATTR InstName C1
SYMATTR Value 33p
SYMBOL res -80 -432 R270
WINDOW 0 25 56 VTop 2
WINDOW 3 7 56 VBottom 2
SYMATTR InstName R1
SYMATTR Value 10k
SYMBOL res 416 -432 R270
WINDOW 0 25 56 VTop 2
WINDOW 3 7 56 VBottom 2
SYMATTR InstName R2
SYMATTR Value {k*10k}
SYMBOL source-V -64 -256 R0
WINDOW 123 28 56 Left 2
WINDOW 39 0 0 Left 2
WINDOW 3 28 84 Left 2
SYMATTR Value2 AC 1
SYMATTR InstName V3
SYMATTR Value SINE(0 {amp} 100)
SYMBOL EIT_Semiconductors\\pnp_o 320 -240 M0
WINDOW 3 9 -123 Left 2
SYMATTR Value CA3096_pnp
SYMATTR InstName Q9
SYMBOL EIT_Semiconductors\\pnp_o 576 -240 R0
WINDOW 3 2 -122 Left 2
SYMATTR Value CA3096_pnp
SYMATTR InstName Q10
SYMBOL res 624 -352 R0
SYMATTR InstName R3
SYMATTR Value 1k
SYMBOL res 384 -416 R90
WINDOW 0 7 56 VBottom 2
WINDOW 3 25 56 VTop 2
SYMATTR InstName R4
SYMATTR Value 1.5k
SYMBOL EIT_Semiconductors\\pnp_o 480 -240 R0
WINDOW 3 -18 -116 Left 2
SYMATTR Value CA3096_pnp
SYMATTR InstName Q11
SYMBOL res 528 -352 R0
SYMATTR InstName R5
SYMATTR Value 1k
SYMBOL EIT_Semiconductors\\npn 448 416 M0
SYMATTR InstName Q12
SYMATTR Value CA3046
SYMBOL EIT_Semiconductors\\npn 448 416 R0
SYMATTR InstName Q13
SYMATTR Value CA3046
SYMBOL EIT_Semiconductors\\pnp_o 224 -240 M0
WINDOW 3 9 -123 Left 2
SYMATTR Value CA3096_pnp
SYMATTR InstName Q14
SYMBOL EIT_Semiconductors\\npn 480 -64 M0
SYMATTR InstName Q15
SYMATTR Value CA3046
SYMBOL EIT_Semiconductors\\npn 480 -64 R0
SYMATTR InstName Q16
SYMATTR Value CA3046 10
SYMBOL EIT_Semiconductors\\pnp_o 352 -240 R0
WINDOW 3 -18 -116 Left 2
SYMATTR Value CA3096_pnp
SYMATTR InstName Q17
SYMBOL res 432 -352 R0
SYMATTR InstName R6
SYMATTR Value 1k
SYMBOL res 528 16 R0
SYMATTR InstName R7
SYMATTR Value 300
SYMBOL res 320 -272 R270
WINDOW 0 25 56 VTop 2
WINDOW 3 7 56 VBottom 2
SYMATTR InstName R8
SYMATTR Value 1meg
TEXT -112 72 Left 2 !;ac dec 30 0.1 100meg
TEXT -96 104 Left 2 !;op
TEXT -72 160 Left 2 !.param k=1 amp=2
TEXT -104 248 Left 2 ;.step param k list 1 2 10 100 1000
TEXT -96 304 Left 2 !.tran 20m
TEXT -96 384 Left 2 !.step param amp 8 10 0.25
