Version 4
SHEET 1 880 680
SYMBOL EIT_Semiconductors\\op_3 224 176 R0
SYMATTR InstName U1
SYMBOL res 16 48 R0
SYMATTR InstName R1
