Version 4
SHEET 1 1212 760
WIRE 112 -304 16 -304
WIRE 176 -304 112 -304
WIRE 432 -304 176 -304
WIRE 1072 -304 512 -304
WIRE -64 -224 -64 -304
WIRE 256 -192 160 -192
WIRE 448 -192 256 -192
WIRE 576 -192 448 -192
WIRE 768 -192 576 -192
WIRE 880 -192 768 -192
WIRE 1008 -192 880 -192
WIRE -64 -96 -64 -224
WIRE 160 -96 160 -112
WIRE 256 -96 256 -112
WIRE 448 -96 448 -112
WIRE 576 -96 576 -112
WIRE 768 -96 768 -112
WIRE 1008 -80 1008 -192
WIRE 320 -48 224 -48
WIRE 368 -48 320 -48
WIRE 384 -48 368 -48
WIRE 640 -48 384 -48
WIRE 704 -48 640 -48
WIRE 160 0 80 0
WIRE 880 0 880 -192
WIRE -64 16 -64 -16
WIRE 368 32 368 -48
WIRE 448 32 448 0
WIRE 448 32 368 32
WIRE 1008 32 1008 0
WIRE 768 48 768 0
WIRE 816 48 768 48
WIRE 256 112 256 0
WIRE 256 112 192 112
WIRE 320 112 256 112
WIRE 112 160 112 -304
WIRE 128 160 112 160
WIRE 400 160 384 160
WIRE 880 160 880 96
WIRE 1008 160 880 160
WIRE 1072 160 1072 -304
WIRE 1072 160 1008 160
WIRE 688 176 448 176
WIRE 768 176 768 48
WIRE 768 176 752 176
WIRE 400 224 400 160
WIRE 880 224 880 160
WIRE 544 240 512 240
WIRE 576 240 576 0
WIRE 576 240 544 240
WIRE 608 240 576 240
WIRE 608 256 608 240
WIRE 768 272 768 176
WIRE 784 272 768 272
WIRE 816 272 784 272
WIRE 320 288 320 208
WIRE 368 288 320 288
WIRE 448 288 448 176
WIRE 448 288 368 288
WIRE 768 320 768 272
WIRE 80 336 80 0
WIRE 384 336 80 336
WIRE 512 368 512 336
WIRE 672 368 512 368
WIRE 704 368 672 368
WIRE 192 384 192 208
WIRE 256 384 192 384
WIRE 880 384 880 320
WIRE 1008 384 880 384
WIRE 192 400 192 384
WIRE 320 400 320 288
WIRE 384 400 384 336
WIRE 448 400 384 400
WIRE 384 416 384 400
WIRE 512 416 512 368
WIRE 256 448 256 384
WIRE 608 448 608 320
WIRE 448 464 448 400
WIRE 1008 480 1008 464
WIRE 192 544 192 496
WIRE 320 544 320 496
WIRE 320 544 192 544
WIRE 384 544 384 512
WIRE 384 544 320 544
WIRE 512 544 512 512
WIRE 512 544 384 544
WIRE 608 544 608 512
WIRE 608 544 512 544
WIRE 768 544 768 416
WIRE 768 544 608 544
WIRE 832 544 768 544
WIRE 880 544 880 384
WIRE 880 544 832 544
FLAG 1008 480 0
FLAG 1008 32 0
FLAG 400 224 0
FLAG 784 272 o
FLAG -64 16 0
FLAG 1008 160 out
FLAG 176 -304 a
FLAG 448 112 0
FLAG -64 -224 1
FLAG 832 544 minus
FLAG 368 288 b5
FLAG 544 240 c5
FLAG 672 368 b6
SYMBOL EIT_Semiconductors\\pnp_o 128 112 R0
WINDOW 3 50 63 Left 2
SYMATTR Value CA3096_pnp
SYMATTR InstName Q1
SYMBOL EIT_Semiconductors\\pnp_o 384 112 M0
WINDOW 3 -36 -26 Left 2
SYMATTR Value CA3096_pnp
SYMATTR InstName Q2
SYMBOL EIT_Semiconductors\\npn 256 400 M0
SYMATTR InstName Q3
SYMATTR Value CA3046
SYMBOL EIT_Semiconductors\\npn 256 400 R0
SYMATTR InstName Q4
SYMATTR Value CA3046
SYMBOL EIT_Semiconductors\\npn 448 240 R0
SYMATTR InstName Q5
SYMATTR Value CA3046
SYMBOL EIT_Semiconductors\\npn 704 320 R0
SYMATTR InstName Q6
SYMATTR Value CA3046
SYMBOL EIT_Semiconductors\\npn 816 0 R0
SYMATTR InstName Q7
SYMATTR Value CA3046
SYMBOL EIT_Semiconductors\\pnp_o 816 224 R0
WINDOW 3 -37 -11 Left 2
SYMATTR Value CA3096_pnp
SYMATTR InstName Q8
SYMBOL source-V 1008 368 R0
SYMATTR InstName V1
SYMATTR Value -10
SYMBOL source-V 1008 -96 R0
SYMATTR InstName V2
SYMATTR Value +10
SYMBOL cap 752 160 R90
WINDOW 0 0 32 VBottom 2
WINDOW 3 32 32 VTop 2
SYMATTR InstName C1
SYMATTR Value 33p
SYMBOL res -80 -288 R270
WINDOW 0 25 56 VTop 2
WINDOW 3 7 56 VBottom 2
SYMATTR InstName R1
SYMATTR Value 10k
SYMBOL res 416 -288 R270
WINDOW 0 25 56 VTop 2
WINDOW 3 7 56 VBottom 2
SYMATTR InstName R2
SYMATTR Value {k*10k}
SYMBOL source-V -64 -112 R0
WINDOW 123 28 56 Left 2
WINDOW 39 0 0 Left 2
WINDOW 3 28 84 Left 2
SYMATTR Value2 AC 1
SYMATTR InstName V3
SYMATTR Value SINE(0 {amp} 100)
SYMBOL EIT_Semiconductors\\pnp_o 320 -96 M0
WINDOW 3 9 -123 Left 2
SYMATTR Value CA3096_pnp
SYMATTR InstName Q9
SYMBOL EIT_Semiconductors\\pnp_o 704 -96 R0
WINDOW 3 2 -122 Left 2
SYMATTR Value CA3096_pnp
SYMATTR InstName Q10
SYMBOL res 752 -208 R0
SYMATTR InstName R3
SYMATTR Value 1k
SYMBOL res 240 -208 R0
SYMATTR InstName R4
SYMATTR Value 13k
SYMBOL EIT_Semiconductors\\pnp_o 384 -96 R0
WINDOW 3 -18 -116 Left 2
SYMATTR Value CA3096_pnp
SYMATTR InstName Q11
SYMBOL res 432 -208 R0
SYMATTR InstName R5
SYMATTR Value 1k
SYMBOL res 432 16 R0
SYMATTR InstName R6
SYMATTR Value 45k
SYMBOL EIT_Semiconductors\\npn 448 416 M0
SYMATTR InstName Q12
SYMATTR Value CA3046
SYMBOL EIT_Semiconductors\\npn 448 416 R0
SYMATTR InstName Q13
SYMATTR Value CA3046
SYMBOL EIT_Semiconductors\\pnp_o 224 -96 M0
WINDOW 3 9 -123 Left 2
SYMATTR Value CA3096_pnp
SYMATTR InstName Q14
SYMBOL res 144 -208 R0
SYMATTR InstName R7
SYMATTR Value 13k
SYMBOL EIT_Semiconductors\\pnp_o 640 -96 M0
WINDOW 3 -80 128 Left 2
SYMATTR Value CA3096_pnp
SYMATTR InstName Q15
SYMBOL res 560 -208 R0
SYMATTR InstName R8
SYMATTR Value 5k
SYMBOL diode 592 448 R0
SYMATTR InstName D1
SYMBOL diode 592 256 R0
SYMATTR InstName D2
TEXT -112 72 Left 2 !;ac dec 30 0.1 100meg
TEXT -96 104 Left 2 !;op
TEXT -72 160 Left 2 !.param k=1 amp=2
TEXT -104 248 Left 2 ;.step param k list 1 2 10 100 1000
TEXT -96 304 Left 2 !.tran 20m
TEXT -96 384 Left 2 !.step param amp 8 10 0.25
