Version 4
SHEET 1 1040 772
WIRE 0 -64 -256 -64
WIRE 96 -64 0 -64
WIRE 96 0 96 -64
WIRE -112 16 -144 16
WIRE -16 16 -48 16
WIRE 0 16 -16 16
WIRE 32 16 0 16
WIRE -256 32 -256 16
WIRE -16 32 -16 16
WIRE -80 80 -96 80
WIRE -144 112 -208 112
WIRE 96 112 96 80
WIRE 96 112 64 112
WIRE 144 112 96 112
WIRE 176 112 144 112
WIRE 304 112 256 112
WIRE 368 112 304 112
WIRE 400 112 368 112
WIRE 512 112 400 112
WIRE 592 112 512 112
WIRE -208 128 -208 112
WIRE 304 128 304 112
WIRE 400 128 400 112
WIRE 512 160 512 112
WIRE 768 160 688 160
WIRE -400 176 -432 176
WIRE -80 176 -80 160
WIRE -16 176 -16 112
WIRE -16 176 -80 176
WIRE 96 176 96 112
WIRE 192 176 96 176
WIRE 32 192 32 64
WIRE 96 208 96 176
WIRE 192 208 192 176
WIRE 688 208 688 160
WIRE -208 224 -208 208
WIRE -144 224 -144 112
WIRE -96 224 -144 224
WIRE 400 224 400 208
WIRE -16 240 -16 176
WIRE -16 240 -32 240
WIRE -512 256 -544 256
WIRE -432 256 -432 176
WIRE -416 256 -432 256
WIRE -336 256 -336 176
WIRE -320 256 -336 256
WIRE -240 256 -256 256
WIRE -160 256 -240 256
WIRE -96 256 -160 256
WIRE 512 272 512 240
WIRE -240 288 -240 256
WIRE -432 304 -432 256
WIRE -320 304 -432 304
WIRE 96 304 96 272
WIRE 192 304 192 272
WIRE 688 304 688 288
WIRE 304 336 304 272
WIRE -320 352 -432 352
WIRE -544 416 -544 256
WIRE 592 416 592 112
WIRE 592 416 -544 416
WIRE 144 464 112 464
WIRE 176 464 144 464
WIRE 304 464 256 464
WIRE 368 464 304 464
WIRE 400 464 368 464
WIRE 512 464 400 464
WIRE 592 464 512 464
WIRE 304 480 304 464
WIRE 400 480 400 464
WIRE -80 496 -96 496
WIRE 0 496 -80 496
WIRE 512 512 512 464
WIRE -400 528 -432 528
WIRE -96 544 -96 496
WIRE 112 544 112 464
WIRE -208 560 -240 560
WIRE -176 560 -208 560
WIRE 0 560 0 496
WIRE 32 560 0 560
WIRE 400 576 400 560
WIRE -512 608 -544 608
WIRE -432 608 -432 528
WIRE -416 608 -432 608
WIRE -336 608 -336 528
WIRE -320 608 -336 608
WIRE -240 608 -240 560
WIRE -240 608 -256 608
WIRE 512 624 512 592
WIRE -240 640 -240 608
WIRE -96 640 -96 624
WIRE 112 640 112 624
WIRE -432 656 -432 608
WIRE -320 656 -432 656
WIRE 304 688 304 624
WIRE -320 704 -432 704
WIRE -96 736 -96 720
WIRE 112 736 112 720
WIRE -544 768 -544 608
WIRE 592 768 592 464
WIRE 592 768 -544 768
FLAG 304 336 0
FLAG 400 224 0
FLAG 96 304 0
FLAG -256 32 0
FLAG 32 192 0
FLAG 144 112 s
FLAG 368 112 out
FLAG 0 -64 e
FLAG 0 16 crtl
FLAG 688 304 0
FLAG 512 272 0
FLAG -64 272 0
FLAG -208 224 0
FLAG -240 368 0
FLAG -160 256 vr
FLAG 304 688 0
FLAG 400 576 0
FLAG 144 464 s_lin
FLAG 368 464 out_lin
FLAG 512 624 0
FLAG -240 720 0
FLAG -176 608 0
FLAG -208 560 vr_lin
FLAG -96 736 0
FLAG -80 496 p_lin
FLAG 32 608 0
FLAG 112 736 0
FLAG 192 304 0
FLAG -144 16 0
SYMBOL ind 160 128 R270
WINDOW 0 30 56 VTop 2
WINDOW 3 6 56 VBottom 2
SYMATTR InstName L1
SYMATTR Value 50µ
SYMBOL cap 288 208 R0
WINDOW 3 -63 67 Left 2
SYMATTR Value {ca} IC=5
SYMATTR InstName C1
SYMBOL res 384 112 R0
SYMATTR InstName RL
SYMATTR Value {RL}
SYMBOL diode 112 272 R180
WINDOW 0 -44 35 Left 2
WINDOW 3 -56 4 Left 2
SYMATTR InstName D1
SYMATTR Value my_d
SYMBOL crtl-V-S 96 -16 R0
SYMATTR InstName S1
SYMATTR Value my_sw
SYMBOL source-V -256 -80 R0
SYMATTR InstName V1
SYMATTR Value 15
SYMBOL source-V 688 192 R0
WINDOW 123 0 0 Left 2
WINDOW 39 0 0 Left 2
SYMATTR InstName V2
SYMATTR Value SINE(0 1 1meg)
SYMBOL source-I 512 240 R180
WINDOW 0 29 73 Left 2
WINDOW 3 -40 -70 Left 2
WINDOW 123 0 0 Left 2
WINDOW 39 0 0 Left 2
SYMATTR InstName I1
SYMATTR Value PULSE(0 500m 3m)
SYMBOL res 288 112 R0
SYMATTR InstName RS
SYMATTR Value 0.2
SYMBOL EIT_Semiconductors\\comp_oc -64 240 R0
SYMATTR InstName U1
SYMBOL source-V -208 112 R0
WINDOW 3 -311 2 Left 2
WINDOW 123 0 0 Left 2
WINDOW 39 0 0 Left 2
SYMATTR Value PULSE(3 6 0 15u 5u 1p 20u)
SYMATTR InstName V3
SYMBOL source-Vmarker -96 80 R0
WINDOW 3 -46 5 Center 2
SYMATTR Value V=2.5V
SYMATTR InstName U2
SYMBOL res -96 64 R0
SYMATTR InstName Roc
SYMATTR Value 1k
SYMBOL crtl-V-V -240 272 R0
WINDOW 3 36 54 Left 2
SYMATTR Value -1meg
SYMATTR InstName E1
SYMBOL res -432 272 R270
WINDOW 0 25 56 VTop 2
WINDOW 3 7 56 VBottom 2
SYMATTR InstName R2
SYMATTR Value {KR*1k}
SYMBOL res -528 272 R270
WINDOW 0 25 56 VTop 2
WINDOW 3 7 56 VBottom 2
SYMATTR InstName R1
SYMATTR Value 1k
SYMBOL source-Vmarker -432 352 R0
WINDOW 3 -46 5 Center 2
SYMATTR InstName U3
SYMBOL cap -336 160 R90
WINDOW 0 0 32 VBottom 2
WINDOW 3 32 32 VTop 2
SYMATTR InstName C2
SYMATTR Value 500p
SYMBOL ind 160 480 R270
WINDOW 0 30 56 VTop 2
WINDOW 3 6 56 VBottom 2
SYMATTR InstName L2
SYMATTR Value 50µ
SYMBOL cap 288 560 R0
WINDOW 3 -63 67 Left 2
SYMATTR Value {ca} IC=5
SYMATTR InstName C3
SYMBOL res 384 464 R0
SYMATTR InstName RL1
SYMATTR Value {RL}
SYMBOL source-I 512 592 R180
WINDOW 0 29 73 Left 2
WINDOW 3 -40 -70 Left 2
WINDOW 123 0 0 Left 2
WINDOW 39 0 0 Left 2
SYMATTR InstName I2
SYMATTR Value PULSE(0 500m 3m)
SYMBOL res 288 464 R0
SYMATTR InstName RS1
SYMATTR Value 0.2
SYMBOL crtl-V-V -240 624 R0
WINDOW 3 36 54 Left 2
SYMATTR Value -1meg
SYMATTR InstName E2
SYMBOL res -432 624 R270
WINDOW 0 25 56 VTop 2
WINDOW 3 7 56 VBottom 2
SYMATTR InstName R3
SYMATTR Value {KR*1k}
SYMBOL res -528 624 R270
WINDOW 0 25 56 VTop 2
WINDOW 3 7 56 VBottom 2
SYMATTR InstName R4
SYMATTR Value 1k
SYMBOL source-Vmarker -432 704 R0
WINDOW 3 -46 5 Center 2
SYMATTR InstName U5
SYMBOL cap -336 512 R90
WINDOW 0 0 32 VBottom 2
WINDOW 3 32 32 VTop 2
SYMATTR InstName C4
SYMATTR Value 500p
SYMBOL crtl-V-V -96 528 R0
SYMATTR InstName E3
SYMATTR Value 0.333333
SYMBOL source-V -96 624 R0
SYMATTR InstName V4
SYMATTR Value -1
SYMBOL crtl-V-V 112 528 R0
SYMATTR InstName E4
SYMATTR Value 15.4
SYMBOL source-V 112 624 R0
SYMATTR InstName V5
SYMATTR Value -0.4
SYMBOL cap -256 592 R90
WINDOW 0 0 32 VBottom 2
WINDOW 3 32 32 VTop 2
SYMATTR InstName C5
SYMATTR Value 47n
SYMBOL cap -256 240 R90
WINDOW 0 0 32 VBottom 2
WINDOW 3 32 32 VTop 2
SYMATTR InstName C6
SYMATTR Value 47n
SYMBOL cap 176 208 R0
WINDOW 3 22 -16 Left 2
SYMATTR InstName C7
SYMATTR Value 100p
SYMBOL res -32 16 R0
SYMATTR InstName R5
SYMATTR Value 1k
SYMBOL cap -112 32 R270
WINDOW 0 32 32 VTop 2
WINDOW 3 0 32 VBottom 2
SYMATTR InstName C8
SYMATTR Value 200p
TEXT 160 0 Left 2 !.model my_D D(Ron=1m Roff=1T Vfwd=0.4)
TEXT 160 -32 Left 2 !.model my_sw SW(Ron=1m Roff=1T Vt=1.25 Vh=-0.5)
TEXT 488 128 Left 2 ;VA=5V
TEXT 160 32 Left 2 ;P=(VA+VD0)/(VE+VD0)=5,4/15,4=0.35064935064935064935
TEXT -160 400 Left 2 !.param p=0.35064935064935064935 Tper=20u ca=100u RL=5
TEXT -160 368 Left 2 ;IAmin=700mA -> RL=5/0,7=7,13Ohm
TEXT -32 -104 Left 2 !.tran 0 5m 0 0.1u
TEXT 184 -104 Left 2 ;.step param ca list 22u 33u 47u 100u
TEXT 176 -64 Left 2 ;.step param RL list 4 5 6 7
TEXT -400 40 Left 2 !.param KR=0.5
TEXT 488 480 Left 2 ;VA=5V
