Version 4
SHEET 1 1040 680
WIRE 0 -32 -112 -32
WIRE 96 -32 0 -32
WIRE -112 -16 -112 -32
WIRE 96 0 96 -32
WIRE 0 16 -32 16
WIRE 32 16 0 16
WIRE 32 64 16 64
WIRE -112 80 -112 64
WIRE 16 96 16 64
WIRE -32 112 -32 16
WIRE -32 112 -128 112
WIRE 96 112 96 80
WIRE 96 112 64 112
WIRE 144 112 96 112
WIRE 176 112 144 112
WIRE 304 112 256 112
WIRE 368 112 304 112
WIRE 400 112 368 112
WIRE 304 128 304 112
WIRE 400 128 400 112
WIRE 96 144 96 112
WIRE 672 160 592 160
WIRE -256 176 -288 176
WIRE -112 176 -256 176
WIRE -32 192 -32 112
WIRE -32 192 -48 192
WIRE -160 208 -192 208
WIRE -112 208 -160 208
WIRE 592 208 592 160
WIRE -288 224 -288 176
WIRE -192 224 -192 208
WIRE 96 224 96 208
WIRE 304 224 304 208
WIRE 400 224 400 208
WIRE -80 256 -80 224
WIRE 592 304 592 288
WIRE 304 320 304 288
WIRE -288 336 -288 304
WIRE -192 336 -192 304
FLAG 304 320 0
FLAG 400 224 0
FLAG 96 224 0
FLAG -112 80 0
FLAG -192 336 0
FLAG 16 96 0
FLAG 144 112 s
FLAG 368 112 out
FLAG 0 -32 e
FLAG 0 16 crtl
FLAG 592 304 0
FLAG -288 336 0
FLAG -80 256 0
FLAG -256 176 saw
FLAG -160 208 r
SYMBOL ind 160 128 R270
WINDOW 0 30 56 VTop 2
WINDOW 3 6 56 VBottom 2
SYMATTR InstName L1
SYMATTR Value 50µ
SYMBOL cap 288 224 R0
WINDOW 3 -63 67 Left 2
SYMATTR Value {ca}
SYMATTR InstName C1
SYMBOL res 384 112 R0
SYMATTR InstName R1
SYMATTR Value {RL}
SYMBOL diode 112 208 R180
WINDOW 0 -44 35 Left 2
WINDOW 3 -56 4 Left 2
SYMATTR InstName D1
SYMATTR Value my_d
SYMBOL crtl-V-S 96 -16 R0
SYMATTR InstName S1
SYMATTR Value my_sw
SYMBOL source-V -112 -32 R0
SYMATTR InstName V1
SYMATTR Value 15
SYMBOL source-V -192 208 R0
WINDOW 3 -25 179 Left 2
WINDOW 123 0 0 Left 2
WINDOW 39 0 0 Left 2
SYMATTR Value PULSE(3 4 0 500u)
SYMATTR InstName Vst
SYMBOL source-V 592 192 R0
WINDOW 123 0 0 Left 2
WINDOW 39 0 0 Left 2
SYMATTR InstName V2
SYMATTR Value SINE(0 1 1meg)
SYMBOL EIT_Semiconductors\\comp_oc -80 192 R0
SYMATTR InstName U1
SYMBOL source-V -288 208 R0
WINDOW 3 -139 -53 Left 2
WINDOW 123 0 0 Left 2
WINDOW 39 0 0 Left 2
SYMATTR Value PULSE(3 6 0 15u 5u 1p 20u)
SYMATTR InstName VSAW
SYMBOL res -224 128 R270
WINDOW 0 25 56 VTop 2
WINDOW 3 7 56 VBottom 2
SYMATTR InstName R2
SYMATTR Value 1k
SYMBOL source-Vmarker -208 112 R0
SYMATTR Value V=2.5V
SYMATTR InstName U2
SYMBOL res 288 112 R0
SYMATTR InstName RS
SYMATTR Value 200m
TEXT 160 24 Left 2 !.model my_D D(Ron=1m Roff=1T Vfwd=0.4)
TEXT 160 -8 Left 2 !.model my_sw SW(Ron=1m Roff=1T Vt=1.25 Vh=-0.5)
TEXT 488 128 Left 2 ;VA=5V
TEXT 240 56 Left 2 ;P=(VA+VD0)/(VE+VD0)=5,4/15,4=0.35064935064935064935
TEXT -160 360 Left 2 !.param p=0.35064935064935064935 Tper=20u ca=100u RL=5
TEXT -136 320 Left 2 ;IAmin=700mA -> RL=5/0,7=7,13Ohm
TEXT -32 -104 Left 2 !.tran 0 5m 0 0.1u uic
TEXT 120 -64 Left 2 ;.step param ca list 22u 33u 47u 100u
TEXT 168 -32 Left 2 ;.step param RL list 4 5 6 7
