Version 4
SHEET 1 880 680
WIRE 368 -16 192 -16
WIRE 400 -16 368 -16
WIRE 192 0 192 -16
WIRE 368 0 368 -16
WIRE 464 112 32 112
WIRE 32 128 32 112
WIRE 192 160 192 80
WIRE 368 160 368 80
WIRE 64 208 32 208
WIRE 128 208 64 208
WIRE 464 208 464 112
WIRE 464 208 432 208
WIRE 64 240 64 208
WIRE 192 304 192 256
WIRE 208 304 192 304
WIRE 240 304 208 304
WIRE 336 304 320 304
WIRE 368 304 368 256
WIRE 368 304 336 304
WIRE 192 336 192 304
WIRE 368 336 368 304
WIRE 192 448 192 416
WIRE 368 448 368 416
FLAG 368 448 0
FLAG 192 448 0
FLAG 64 240 0
FLAG 208 304 e1
FLAG 336 304 e2
SYMBOL EIT_Semiconductors\\npn 128 160 R0
SYMATTR InstName QA
SYMBOL EIT_Semiconductors\\npn 432 160 M0
SYMATTR InstName QB
SYMBOL res 336 288 R90
WINDOW 0 7 56 VBottom 2
WINDOW 3 25 56 VTop 2
SYMATTR InstName R1
SYMATTR Value 1k
SYMBOL source-I 192 416 R180
WINDOW 0 29 73 Left 2
WINDOW 3 29 17 Left 2
SYMATTR InstName I1
SYMATTR Value 1m
SYMBOL source-I 368 416 R180
WINDOW 0 29 73 Left 2
WINDOW 3 29 17 Left 2
SYMATTR InstName I2
SYMATTR Value 1m
SYMBOL res 176 -16 R0
SYMATTR InstName R2
SYMATTR Value 1k
SYMBOL source-Vmarker 400 -16 M0
SYMATTR InstName U1
SYMBOL res 352 -16 R0
SYMATTR InstName R3
SYMATTR Value 1k
SYMBOL source-V 32 112 R0
WINDOW 123 0 0 Left 2
WINDOW 39 0 0 Left 2
SYMATTR InstName VA
SYMATTR Value 0
TEXT -80 320 Left 2 !.dc VA -1.5 1.5 10m
