Version 4
SHEET 1 2036 3156
WIRE 608 1264 608 1216
WIRE 752 1264 608 1264
WIRE 688 1296 688 1216
WIRE 688 1296 544 1296
WIRE 608 1328 608 1264
WIRE 688 1328 688 1296
WIRE 128 1344 48 1344
WIRE 544 1360 544 1296
WIRE 752 1360 752 1264
WIRE 96 1392 48 1392
WIRE 160 1392 96 1392
WIRE 336 1392 288 1392
WIRE 560 1408 464 1408
WIRE 832 1408 736 1408
WIRE 128 1424 128 1344
WIRE 160 1424 128 1424
WIRE 336 1440 336 1392
WIRE 368 1440 336 1440
WIRE 464 1440 464 1408
WIRE 464 1440 448 1440
WIRE 496 1440 464 1440
WIRE 832 1440 832 1408
WIRE 832 1440 800 1440
WIRE 608 1456 608 1424
WIRE 688 1456 688 1424
WIRE 688 1456 608 1456
WIRE 544 1488 544 1456
WIRE 656 1488 544 1488
WIRE 752 1488 752 1456
WIRE 752 1488 656 1488
WIRE 96 1536 96 1392
WIRE 160 1536 96 1536
WIRE 240 1536 224 1536
WIRE 384 1536 368 1536
WIRE 832 1536 832 1440
WIRE 832 1536 464 1536
WIRE 128 1568 128 1424
WIRE 240 1568 128 1568
WIRE 656 1616 656 1488
FLAG 608 1216 I_out+
IOPIN 608 1216 Out
FLAG 688 1216 I_out-
IOPIN 688 1216 Out
FLAG 48 1392 sw3
IOPIN 48 1392 In
FLAG 656 1616 I_In
IOPIN 656 1616 In
FLAG 48 1344 clk
IOPIN 48 1344 In
SYMBOL EIT_Digital\\DFF 224 1360 R0
WINDOW 3 -66 113 Left 0
SYMATTR InstName U12
SYMATTR Value TD={Td1}
SYMBOL EIT_Semiconductors\\nmos_b 496 1360 R0
WINDOW 0 -88 -4 Left 0
WINDOW 3 -84 24 Left 0
SYMATTR InstName M9
SYMATTR Value BSS145
SYMBOL EIT_Semiconductors\\nmos_b 560 1328 R0
WINDOW 0 -7 -14 Left 0
WINDOW 3 69 20 VRight 0
SYMATTR InstName M10
SYMATTR Value BSS145
SYMBOL EIT_Semiconductors\\nmos_b 736 1328 M0
WINDOW 0 -2 -9 Left 0
WINDOW 3 69 95 VLeft 0
SYMATTR InstName M11
SYMATTR Value BSS145
SYMBOL EIT_Semiconductors\\nmos_b 800 1360 M0
WINDOW 0 -22 -34 Left 0
WINDOW 3 -54 -8 Left 0
SYMATTR InstName M12
SYMATTR Value BSS145
SYMBOL EIT_Digital\\DFF 304 1504 R0
WINDOW 0 -24 -12 Left 0
SYMATTR InstName U13
SYMATTR Value TD={Td2}
SYMBOL EIT_Digital\\INVERTER 176 1536 R0
WINDOW 3 -84 59 Left 0
SYMATTR InstName U14
SYMATTR Value TD={TdInv}
SYMBOL res 464 1424 R90
WINDOW 0 7 56 VBottom 0
WINDOW 3 25 56 VTop 0
SYMATTR InstName R5
SYMATTR Value 220
SYMBOL res 480 1520 R90
WINDOW 0 7 56 VBottom 0
WINDOW 3 25 56 VTop 0
SYMATTR InstName R6
SYMATTR Value 220
