Version 4
SHEET 1 3140 7060
WIRE -16 640 -16 624
WIRE 64 640 64 624
WIRE -16 688 -16 640
WIRE 64 688 64 640
WIRE -16 800 -16 768
WIRE 32 800 -16 800
WIRE 64 800 64 768
WIRE 64 800 32 800
WIRE 32 832 32 800
WIRE -2432 1200 -2432 1184
WIRE -2432 1216 -2432 1200
WIRE 464 1232 416 1232
WIRE 720 1232 656 1232
WIRE 736 1232 720 1232
WIRE 848 1232 832 1232
WIRE 912 1232 848 1232
WIRE 1152 1232 1104 1232
WIRE 464 1264 416 1264
WIRE 720 1264 656 1264
WIRE 736 1264 720 1264
WIRE 848 1264 832 1264
WIRE 912 1264 848 1264
WIRE 1152 1264 1104 1264
WIRE -256 1280 -336 1280
WIRE -256 1296 -400 1296
WIRE -256 1312 -496 1312
WIRE -96 1312 -192 1312
WIRE -2432 1328 -2432 1296
WIRE -96 1344 -144 1344
WIRE 32 1344 -32 1344
WIRE 48 1344 32 1344
WIRE 192 1344 160 1344
WIRE 208 1344 192 1344
WIRE 576 1376 576 1360
WIRE 992 1376 992 1360
WIRE -496 1408 -496 1312
WIRE -256 1408 -496 1408
WIRE -400 1424 -400 1296
WIRE -256 1424 -400 1424
WIRE -880 1440 -976 1440
WIRE -736 1440 -816 1440
WIRE -368 1440 -608 1440
WIRE -256 1440 -368 1440
WIRE -96 1440 -192 1440
WIRE -736 1472 -768 1472
WIRE -336 1472 -336 1280
WIRE -336 1472 -608 1472
WIRE -144 1472 -144 1344
WIRE -96 1472 -144 1472
WIRE 32 1472 -32 1472
WIRE 48 1472 32 1472
WIRE 192 1472 160 1472
WIRE 208 1472 192 1472
WIRE 576 1472 576 1456
WIRE 992 1472 992 1456
WIRE -2080 1504 -2112 1504
WIRE -1904 1504 -1952 1504
WIRE -1840 1504 -1904 1504
WIRE -1664 1504 -1728 1504
WIRE -1632 1504 -1664 1504
WIRE 464 1520 416 1520
WIRE 720 1520 656 1520
WIRE 736 1520 720 1520
WIRE 848 1520 832 1520
WIRE 912 1520 848 1520
WIRE 1152 1520 1104 1520
WIRE -1904 1536 -1952 1536
WIRE -1840 1536 -1904 1536
WIRE -1664 1536 -1728 1536
WIRE -1632 1536 -1664 1536
WIRE -672 1536 -672 1520
WIRE -336 1536 -336 1472
WIRE -256 1536 -336 1536
WIRE -2080 1552 -2112 1552
WIRE -256 1552 -432 1552
WIRE 464 1552 416 1552
WIRE 720 1552 656 1552
WIRE 736 1552 720 1552
WIRE 848 1552 832 1552
WIRE 912 1552 848 1552
WIRE 1152 1552 1104 1552
WIRE -1904 1568 -1952 1568
WIRE -1840 1568 -1904 1568
WIRE -1664 1568 -1728 1568
WIRE -1632 1568 -1664 1568
WIRE -496 1568 -496 1408
WIRE -256 1568 -496 1568
WIRE -96 1568 -192 1568
WIRE -2080 1600 -2304 1600
WIRE -1904 1600 -1952 1600
WIRE -1840 1600 -1904 1600
WIRE -1664 1600 -1728 1600
WIRE -1632 1600 -1664 1600
WIRE -144 1600 -144 1472
WIRE -96 1600 -144 1600
WIRE 32 1600 -32 1600
WIRE 48 1600 32 1600
WIRE 192 1600 160 1600
WIRE 208 1600 192 1600
WIRE -2080 1648 -2112 1648
WIRE -1920 1648 -1952 1648
WIRE -496 1664 -496 1568
WIRE -256 1664 -496 1664
WIRE 576 1664 576 1648
WIRE 992 1664 992 1648
WIRE -1920 1680 -1920 1648
WIRE -1920 1680 -2160 1680
WIRE -880 1680 -944 1680
WIRE -736 1680 -816 1680
WIRE -432 1680 -432 1552
WIRE -432 1680 -608 1680
WIRE -256 1680 -432 1680
WIRE -368 1696 -368 1440
WIRE -256 1696 -368 1696
WIRE -96 1696 -192 1696
WIRE -768 1712 -768 1472
WIRE -736 1712 -768 1712
WIRE -400 1712 -400 1424
WIRE -400 1712 -608 1712
WIRE -144 1728 -144 1600
WIRE -96 1728 -144 1728
WIRE 32 1728 -32 1728
WIRE 48 1728 32 1728
WIRE 192 1728 160 1728
WIRE 208 1728 192 1728
WIRE -2080 1760 -2112 1760
WIRE -1904 1760 -1952 1760
WIRE -1840 1760 -1904 1760
WIRE -1664 1760 -1728 1760
WIRE -1632 1760 -1664 1760
WIRE 576 1760 576 1744
WIRE 992 1760 992 1744
WIRE -672 1776 -672 1760
WIRE -1904 1792 -1952 1792
WIRE -1840 1792 -1904 1792
WIRE -1664 1792 -1728 1792
WIRE -1632 1792 -1664 1792
WIRE -336 1792 -336 1536
WIRE -256 1792 -336 1792
WIRE -2080 1808 -2112 1808
WIRE -400 1808 -400 1712
WIRE -256 1808 -400 1808
WIRE 464 1808 416 1808
WIRE 720 1808 656 1808
WIRE 736 1808 720 1808
WIRE 848 1808 832 1808
WIRE 912 1808 848 1808
WIRE 1152 1808 1104 1808
WIRE -1904 1824 -1952 1824
WIRE -1840 1824 -1904 1824
WIRE -1664 1824 -1728 1824
WIRE -1632 1824 -1664 1824
WIRE -256 1824 -464 1824
WIRE -96 1824 -192 1824
WIRE 464 1840 416 1840
WIRE 720 1840 656 1840
WIRE 736 1840 720 1840
WIRE 848 1840 832 1840
WIRE 912 1840 848 1840
WIRE 1152 1840 1104 1840
WIRE -2160 1856 -2160 1680
WIRE -2080 1856 -2160 1856
WIRE -1904 1856 -1952 1856
WIRE -1840 1856 -1904 1856
WIRE -1664 1856 -1728 1856
WIRE -1632 1856 -1664 1856
WIRE -144 1856 -144 1728
WIRE -96 1856 -144 1856
WIRE 32 1856 -32 1856
WIRE 48 1856 32 1856
WIRE 192 1856 160 1856
WIRE 208 1856 192 1856
WIRE -2080 1904 -2112 1904
WIRE -1920 1904 -1952 1904
WIRE -864 1920 -912 1920
WIRE -736 1920 -800 1920
WIRE -464 1920 -464 1824
WIRE -464 1920 -608 1920
WIRE -256 1920 -464 1920
WIRE -1920 1936 -1920 1904
WIRE -1920 1936 -2160 1936
WIRE -400 1936 -400 1808
WIRE -256 1936 -400 1936
WIRE -768 1952 -768 1712
WIRE -736 1952 -768 1952
WIRE -496 1952 -496 1664
WIRE -496 1952 -608 1952
WIRE -368 1952 -368 1696
WIRE -256 1952 -368 1952
WIRE -96 1952 -192 1952
WIRE 576 1952 576 1936
WIRE 992 1952 992 1936
WIRE -1104 1984 -1168 1984
WIRE -976 1984 -976 1440
WIRE -976 1984 -1104 1984
WIRE -144 1984 -144 1856
WIRE -96 1984 -144 1984
WIRE 32 1984 -32 1984
WIRE 48 1984 32 1984
WIRE 192 1984 160 1984
WIRE 208 1984 192 1984
WIRE -2080 2016 -2112 2016
WIRE -1904 2016 -1952 2016
WIRE -1840 2016 -1904 2016
WIRE -1664 2016 -1728 2016
WIRE -1632 2016 -1664 2016
WIRE -1104 2016 -1168 2016
WIRE -944 2016 -944 1680
WIRE -944 2016 -1104 2016
WIRE -672 2016 -672 2000
WIRE -1904 2048 -1952 2048
WIRE -1840 2048 -1904 2048
WIRE -1664 2048 -1728 2048
WIRE -1632 2048 -1664 2048
WIRE -1104 2048 -1168 2048
WIRE -912 2048 -912 1920
WIRE -912 2048 -1104 2048
WIRE -336 2048 -336 1792
WIRE -256 2048 -336 2048
WIRE 576 2048 576 2032
WIRE 992 2048 992 2032
WIRE -2080 2064 -2112 2064
WIRE -432 2064 -432 1680
WIRE -256 2064 -432 2064
WIRE -1904 2080 -1952 2080
WIRE -1840 2080 -1904 2080
WIRE -1664 2080 -1728 2080
WIRE -1632 2080 -1664 2080
WIRE -1104 2080 -1392 2080
WIRE -768 2080 -768 1952
WIRE -768 2080 -1104 2080
WIRE -464 2080 -464 1920
WIRE -256 2080 -464 2080
WIRE -96 2080 -192 2080
WIRE 464 2096 416 2096
WIRE 720 2096 656 2096
WIRE 736 2096 720 2096
WIRE 848 2096 832 2096
WIRE 912 2096 848 2096
WIRE 1152 2096 1104 2096
WIRE -2160 2112 -2160 1936
WIRE -2080 2112 -2160 2112
WIRE -1904 2112 -1952 2112
WIRE -1840 2112 -1904 2112
WIRE -1664 2112 -1728 2112
WIRE -1632 2112 -1664 2112
WIRE -144 2112 -144 1984
WIRE -96 2112 -144 2112
WIRE 32 2112 -32 2112
WIRE 48 2112 32 2112
WIRE 192 2112 160 2112
WIRE 208 2112 192 2112
WIRE -1104 2128 -1168 2128
WIRE -768 2128 -1104 2128
WIRE 464 2128 416 2128
WIRE 720 2128 656 2128
WIRE 736 2128 720 2128
WIRE 848 2128 832 2128
WIRE 912 2128 848 2128
WIRE 1152 2128 1104 2128
WIRE -2080 2160 -2112 2160
WIRE -1104 2160 -1168 2160
WIRE -800 2160 -1104 2160
WIRE -464 2176 -464 2080
WIRE -256 2176 -464 2176
WIRE -432 2192 -432 2064
WIRE -256 2192 -432 2192
WIRE -368 2208 -368 1952
WIRE -256 2208 -368 2208
WIRE -96 2208 -192 2208
WIRE -144 2240 -144 2112
WIRE -96 2240 -144 2240
WIRE 32 2240 -32 2240
WIRE 48 2240 32 2240
WIRE 192 2240 160 2240
WIRE 208 2240 192 2240
WIRE 576 2240 576 2224
WIRE 992 2240 992 2224
WIRE -768 2272 -768 2128
WIRE -432 2272 -768 2272
WIRE -800 2304 -800 2160
WIRE -592 2304 -800 2304
WIRE -432 2304 -528 2304
WIRE -272 2304 -368 2304
WIRE -144 2304 -144 2240
WIRE -144 2304 -208 2304
WIRE 576 2336 576 2320
WIRE 992 2336 992 2320
WIRE -1696 2368 -1888 2368
WIRE -1392 2368 -1392 2080
WIRE -1392 2368 -1696 2368
WIRE -272 2448 -352 2448
WIRE -272 2464 -416 2464
WIRE -272 2480 -512 2480
WIRE -112 2480 -208 2480
WIRE -112 2512 -160 2512
WIRE 0 2512 -48 2512
WIRE 32 2512 0 2512
WIRE 176 2512 144 2512
WIRE 192 2512 176 2512
WIRE 464 2512 416 2512
WIRE 720 2512 656 2512
WIRE 736 2512 720 2512
WIRE 848 2512 832 2512
WIRE 912 2512 848 2512
WIRE 1152 2512 1104 2512
WIRE 464 2544 416 2544
WIRE 720 2544 656 2544
WIRE 736 2544 720 2544
WIRE 848 2544 832 2544
WIRE 912 2544 848 2544
WIRE 1152 2544 1104 2544
WIRE -512 2576 -512 2480
WIRE -272 2576 -512 2576
WIRE -416 2592 -416 2464
WIRE -272 2592 -416 2592
WIRE -896 2608 -992 2608
WIRE -752 2608 -832 2608
WIRE -384 2608 -624 2608
WIRE -272 2608 -384 2608
WIRE -112 2608 -208 2608
WIRE -2304 2640 -2304 1600
WIRE -2256 2640 -2304 2640
WIRE -752 2640 -784 2640
WIRE -352 2640 -352 2448
WIRE -352 2640 -624 2640
WIRE -160 2640 -160 2512
WIRE -112 2640 -160 2640
WIRE 0 2640 -48 2640
WIRE 32 2640 0 2640
WIRE 176 2640 144 2640
WIRE 192 2640 176 2640
WIRE 576 2656 576 2640
WIRE 992 2656 992 2640
WIRE -2304 2688 -2304 2640
WIRE -1888 2688 -1888 2368
WIRE -688 2704 -688 2688
WIRE -352 2704 -352 2640
WIRE -272 2704 -352 2704
WIRE -272 2720 -448 2720
WIRE -512 2736 -512 2576
WIRE -272 2736 -512 2736
WIRE -112 2736 -208 2736
WIRE 576 2752 576 2736
WIRE 992 2752 992 2736
WIRE -160 2768 -160 2640
WIRE -112 2768 -160 2768
WIRE 0 2768 -48 2768
WIRE 32 2768 0 2768
WIRE 176 2768 144 2768
WIRE 192 2768 176 2768
WIRE -2304 2800 -2304 2768
WIRE -1888 2800 -1888 2768
WIRE 464 2800 416 2800
WIRE 720 2800 656 2800
WIRE 736 2800 720 2800
WIRE 848 2800 832 2800
WIRE 912 2800 848 2800
WIRE 1152 2800 1104 2800
WIRE -512 2832 -512 2736
WIRE -272 2832 -512 2832
WIRE 464 2832 416 2832
WIRE 720 2832 656 2832
WIRE 736 2832 720 2832
WIRE 848 2832 832 2832
WIRE 912 2832 848 2832
WIRE 1152 2832 1104 2832
WIRE -896 2848 -960 2848
WIRE -752 2848 -832 2848
WIRE -448 2848 -448 2720
WIRE -448 2848 -624 2848
WIRE -272 2848 -448 2848
WIRE -384 2864 -384 2608
WIRE -272 2864 -384 2864
WIRE -112 2864 -208 2864
WIRE -784 2880 -784 2640
WIRE -752 2880 -784 2880
WIRE -416 2880 -416 2592
WIRE -416 2880 -624 2880
WIRE -160 2896 -160 2768
WIRE -112 2896 -160 2896
WIRE 0 2896 -48 2896
WIRE 32 2896 0 2896
WIRE 176 2896 144 2896
WIRE 192 2896 176 2896
WIRE -688 2944 -688 2928
WIRE 576 2944 576 2928
WIRE 992 2944 992 2928
WIRE -352 2960 -352 2704
WIRE -272 2960 -352 2960
WIRE -416 2976 -416 2880
WIRE -272 2976 -416 2976
WIRE -272 2992 -480 2992
WIRE -112 2992 -208 2992
WIRE -160 3024 -160 2896
WIRE -112 3024 -160 3024
WIRE 0 3024 -48 3024
WIRE 32 3024 0 3024
WIRE 176 3024 144 3024
WIRE 192 3024 176 3024
WIRE 576 3040 576 3024
WIRE 992 3040 992 3024
WIRE -880 3088 -928 3088
WIRE -752 3088 -816 3088
WIRE -480 3088 -480 2992
WIRE -480 3088 -624 3088
WIRE -272 3088 -480 3088
WIRE 464 3088 416 3088
WIRE 720 3088 656 3088
WIRE 736 3088 720 3088
WIRE 848 3088 832 3088
WIRE 912 3088 848 3088
WIRE 1152 3088 1104 3088
WIRE -416 3104 -416 2976
WIRE -272 3104 -416 3104
WIRE -784 3120 -784 2880
WIRE -752 3120 -784 3120
WIRE -512 3120 -512 2832
WIRE -512 3120 -624 3120
WIRE -384 3120 -384 2864
WIRE -272 3120 -384 3120
WIRE -112 3120 -208 3120
WIRE 464 3120 416 3120
WIRE 720 3120 656 3120
WIRE 736 3120 720 3120
WIRE 848 3120 832 3120
WIRE 912 3120 848 3120
WIRE 1152 3120 1104 3120
WIRE -1120 3152 -1184 3152
WIRE -992 3152 -992 2608
WIRE -992 3152 -1120 3152
WIRE -160 3152 -160 3024
WIRE -112 3152 -160 3152
WIRE 0 3152 -48 3152
WIRE 32 3152 0 3152
WIRE 176 3152 144 3152
WIRE 192 3152 176 3152
WIRE -1120 3184 -1184 3184
WIRE -960 3184 -960 2848
WIRE -960 3184 -1120 3184
WIRE -688 3184 -688 3168
WIRE -1120 3216 -1184 3216
WIRE -928 3216 -928 3088
WIRE -928 3216 -1120 3216
WIRE -352 3216 -352 2960
WIRE -272 3216 -352 3216
WIRE -448 3232 -448 2848
WIRE -272 3232 -448 3232
WIRE 576 3232 576 3216
WIRE 992 3232 992 3216
WIRE -1392 3248 -1392 2368
WIRE -1120 3248 -1392 3248
WIRE -784 3248 -784 3120
WIRE -784 3248 -1120 3248
WIRE -480 3248 -480 3088
WIRE -272 3248 -480 3248
WIRE -112 3248 -208 3248
WIRE -160 3280 -160 3152
WIRE -112 3280 -160 3280
WIRE 0 3280 -48 3280
WIRE 32 3280 0 3280
WIRE 176 3280 144 3280
WIRE 192 3280 176 3280
WIRE -1120 3296 -1184 3296
WIRE -784 3296 -1120 3296
WIRE -1120 3328 -1184 3328
WIRE -816 3328 -1120 3328
WIRE 576 3328 576 3312
WIRE 992 3328 992 3312
WIRE -480 3344 -480 3248
WIRE -272 3344 -480 3344
WIRE -448 3360 -448 3232
WIRE -272 3360 -448 3360
WIRE -384 3376 -384 3120
WIRE -272 3376 -384 3376
WIRE -112 3376 -208 3376
WIRE 464 3376 416 3376
WIRE 720 3376 656 3376
WIRE 736 3376 720 3376
WIRE 848 3376 832 3376
WIRE 912 3376 848 3376
WIRE 1152 3376 1104 3376
WIRE -160 3408 -160 3280
WIRE -112 3408 -160 3408
WIRE 0 3408 -48 3408
WIRE 32 3408 0 3408
WIRE 176 3408 144 3408
WIRE 192 3408 176 3408
WIRE 464 3408 416 3408
WIRE 720 3408 656 3408
WIRE 736 3408 720 3408
WIRE 848 3408 832 3408
WIRE 912 3408 848 3408
WIRE 1152 3408 1104 3408
WIRE -784 3440 -784 3296
WIRE -448 3440 -784 3440
WIRE -816 3472 -816 3328
WIRE -608 3472 -816 3472
WIRE -448 3472 -544 3472
WIRE -288 3472 -384 3472
WIRE -160 3472 -160 3408
WIRE -160 3472 -224 3472
WIRE 576 3520 576 3504
WIRE 992 3520 992 3504
WIRE 576 3616 576 3600
WIRE 992 3616 992 3600
WIRE -848 4016 -848 3936
WIRE -352 4016 -848 4016
WIRE -608 4032 -608 3936
WIRE -352 4032 -608 4032
WIRE -576 4064 -576 3936
WIRE -352 4064 -576 4064
WIRE -544 4080 -544 3936
WIRE -352 4080 -544 4080
WIRE -1296 4112 -1360 4112
WIRE -1184 4112 -1232 4112
WIRE -848 4144 -848 4016
WIRE -352 4144 -848 4144
WIRE -608 4160 -608 4032
WIRE -352 4160 -608 4160
WIRE -576 4192 -576 4064
WIRE -352 4192 -576 4192
WIRE -1296 4208 -1360 4208
WIRE -1184 4208 -1232 4208
WIRE -752 4208 -752 3936
WIRE -352 4208 -752 4208
WIRE -848 4272 -848 4144
WIRE -352 4272 -848 4272
WIRE -816 4288 -816 3936
WIRE -352 4288 -816 4288
WIRE -1296 4304 -1360 4304
WIRE -1184 4304 -1232 4304
WIRE -784 4320 -784 3936
WIRE -352 4320 -784 4320
WIRE -544 4336 -544 4080
WIRE -352 4336 -544 4336
WIRE -1296 4400 -1344 4400
WIRE -1184 4400 -1232 4400
WIRE -848 4400 -848 4272
WIRE -352 4400 -848 4400
WIRE -816 4416 -816 4288
WIRE -352 4416 -816 4416
WIRE -784 4448 -784 4320
WIRE -352 4448 -784 4448
WIRE -752 4464 -752 4208
WIRE -352 4464 -752 4464
WIRE -848 4512 -848 4400
WIRE -352 4512 -848 4512
WIRE -816 4528 -816 4416
WIRE -352 4528 -816 4528
WIRE -576 4560 -576 4192
WIRE -352 4560 -576 4560
WIRE -544 4576 -544 4336
WIRE -352 4576 -544 4576
WIRE -848 4640 -848 4512
WIRE -352 4640 -848 4640
WIRE -816 4656 -816 4528
WIRE -352 4656 -816 4656
WIRE -576 4688 -576 4560
WIRE -352 4688 -576 4688
WIRE -752 4704 -752 4464
WIRE -352 4704 -752 4704
WIRE -848 4768 -848 4640
WIRE -352 4768 -848 4768
WIRE -816 4784 -816 4656
WIRE -352 4784 -816 4784
WIRE -784 4816 -784 4448
WIRE -352 4816 -784 4816
WIRE -544 4832 -544 4576
WIRE -352 4832 -544 4832
WIRE -848 4896 -848 4768
WIRE -352 4896 -848 4896
WIRE -816 4912 -816 4784
WIRE -352 4912 -816 4912
WIRE -784 4944 -784 4816
WIRE -352 4944 -784 4944
WIRE -752 4960 -752 4704
WIRE -352 4960 -752 4960
WIRE -848 5088 -848 4896
WIRE -816 5088 -816 4912
WIRE -784 5088 -784 4944
WIRE -752 5088 -752 4960
WIRE -640 5088 -640 3936
WIRE -608 5088 -608 4160
WIRE -576 5088 -576 4688
WIRE -544 5088 -544 4832
FLAG -2304 2800 0
FLAG -2432 1328 0
FLAG -2432 1200 +5V
FLAG -2112 1504 0
FLAG -2112 1648 0
FLAG -2112 1552 +5V
FLAG -1664 1504 D0
FLAG -1664 1536 D1
FLAG -1664 1568 D2
FLAG -1664 1600 D3
FLAG 3120 7040 0
FLAG 64 640 out+
FLAG -16 640 out-
FLAG -1904 1504 s0
FLAG -1904 1536 s1
FLAG -1904 1568 s2
FLAG -1904 1600 s3
FLAG 576 1472 0
FLAG 720 1232 out+
FLAG 720 1264 out-
FLAG 416 1264 clk
FLAG 416 1232 q0
FLAG 32 832 0
FLAG -2112 1760 0
FLAG -2112 1904 0
FLAG -2112 1808 +5V
FLAG -1664 1760 D4
FLAG -1664 1792 D5
FLAG -1664 1824 D6
FLAG -1664 1856 D7
FLAG -1904 1760 s4
FLAG -1904 1792 s5
FLAG -1904 1824 s6
FLAG -1904 1856 s7
FLAG -2112 2016 0
FLAG -2112 2160 0
FLAG -2112 2064 +5V
FLAG -1664 2016 D8
FLAG -1664 2048 D9
FLAG -1664 2080 D10
FLAG -1664 2112 D11
FLAG -1904 2016 s8
FLAG -1904 2048 s9
FLAG -1904 2080 s10
FLAG -1904 2112 s11
FLAG -1104 2128 _E1A
FLAG -1104 2160 E2A
FLAG -672 1536 0
FLAG -672 1776 0
FLAG -672 2016 0
FLAG 192 1344 y0
FLAG 192 1472 y1
FLAG 192 1600 y2
FLAG 192 1728 y3
FLAG 192 1856 y4
FLAG 192 1984 y5
FLAG 192 2112 y6
FLAG 192 2240 y7
FLAG -2752 3680 0
FLAG -1104 2080 _LEA
FLAG -1104 1984 s0
FLAG -1104 2016 s1
FLAG -1104 2048 s2
FLAG -1120 3296 _E1A
FLAG -1120 3328 E2A
FLAG -688 2704 0
FLAG -688 2944 0
FLAG -688 3184 0
FLAG -1120 3248 _LEA
FLAG -1120 3152 s3
FLAG -1120 3184 s4
FLAG -1120 3216 s5
FLAG 176 2512 y8
FLAG 176 2640 y9
FLAG 176 2768 y10
FLAG 176 2896 y11
FLAG 176 3024 y12
FLAG 176 3152 y13
FLAG 176 3280 y14
FLAG 176 3408 y15
FLAG -2256 2640 clkDelay
FLAG -1888 2800 0
FLAG 576 1760 0
FLAG 720 1520 out+
FLAG 720 1552 out-
FLAG 416 1552 clk
FLAG 416 1520 q2
FLAG 576 2048 0
FLAG 720 1808 out+
FLAG 720 1840 out-
FLAG 416 1840 clk
FLAG 416 1808 q4
FLAG 576 2336 0
FLAG 720 2096 out+
FLAG 720 2128 out-
FLAG 416 2128 clk
FLAG 416 2096 q6
FLAG 992 1472 0
FLAG 848 1232 out+
FLAG 848 1264 out-
FLAG 1152 1264 clk
FLAG 1152 1232 q1
FLAG 992 1760 0
FLAG 848 1520 out+
FLAG 848 1552 out-
FLAG 1152 1552 clk
FLAG 1152 1520 q3
FLAG 992 2048 0
FLAG 848 1808 out+
FLAG 848 1840 out-
FLAG 1152 1840 clk
FLAG 1152 1808 q5
FLAG 992 2336 0
FLAG 848 2096 out+
FLAG 848 2128 out-
FLAG 1152 2128 clk
FLAG 1152 2096 q7
FLAG 576 2752 0
FLAG 720 2512 out+
FLAG 720 2544 out-
FLAG 416 2544 clk
FLAG 416 2512 q8
FLAG 576 3040 0
FLAG 720 2800 out+
FLAG 720 2832 out-
FLAG 416 2832 clk
FLAG 416 2800 q10
FLAG 576 3328 0
FLAG 720 3088 out+
FLAG 720 3120 out-
FLAG 416 3120 clk
FLAG 416 3088 q12
FLAG 576 3616 0
FLAG 720 3376 out+
FLAG 720 3408 out-
FLAG 416 3408 clk
FLAG 416 3376 q14
FLAG 992 2752 0
FLAG 848 2512 out+
FLAG 848 2544 out-
FLAG 1152 2544 clk
FLAG 1152 2512 q9
FLAG 992 3040 0
FLAG 848 2800 out+
FLAG 848 2832 out-
FLAG 1152 2832 clk
FLAG 1152 2800 q11
FLAG 992 3328 0
FLAG 848 3088 out+
FLAG 848 3120 out-
FLAG 1152 3120 clk
FLAG 1152 3088 q13
FLAG 992 3616 0
FLAG 848 3376 out+
FLAG 848 3408 out-
FLAG 1152 3408 clk
FLAG 1152 3376 q15
FLAG 32 1344 q0
FLAG 32 1472 q1
FLAG 32 1600 q2
FLAG 32 1728 q3
FLAG 32 1856 q4
FLAG 32 1984 q5
FLAG 32 2112 q6
FLAG 32 2240 q7
FLAG 0 2512 q8
FLAG 0 2640 q9
FLAG 0 2768 q10
FLAG 0 2896 q11
FLAG 0 3024 q12
FLAG 0 3152 q13
FLAG 0 3280 q14
FLAG 0 3408 q15
FLAG -1696 2368 clk
FLAG -752 3936 e0
FLAG -784 3936 e1
FLAG -816 3936 e2
FLAG -848 3936 E
FLAG -544 3936 _e0
FLAG -576 3936 _e1
FLAG -608 3936 _e2
FLAG -640 3936 _E
FLAG -1360 4112 E
FLAG -1360 4208 e2
FLAG -1360 4304 e1
FLAG -1344 4400 e0
FLAG -1184 4112 _E
FLAG -1184 4208 _e2
FLAG -1184 4304 _e1
FLAG -1184 4400 _e0
SYMBOL EIT_Digital\\bin_up_counter -2080 1504 R0
WINDOW 3 49 -62 Left 0
SYMATTR InstName U1
SYMBOL source-V -2304 2672 R0
WINDOW 123 0 0 Left 0
WINDOW 39 0 0 Left 0
WINDOW 3 -238 218 Left 0
SYMATTR Value PULSE(0 5 1m 10n 10n 500u 1m)
SYMATTR InstName V1
SYMBOL source-V -2432 1200 R0
WINDOW 123 0 0 Left 0
WINDOW 39 0 0 Left 0
SYMATTR InstName V2
SYMATTR Value {vpwr$_digital}
SYMBOL EIT_Digital\\probe_dig -1840 1488 R0
SYMATTR Value T=0
SYMATTR InstName U2
SYMBOL EIT_Digital\\probe_dig -1840 1520 R0
SYMATTR Value T=1
SYMATTR InstName U3
SYMBOL EIT_Digital\\probe_dig -1840 1552 R0
SYMATTR Value T=2
SYMATTR InstName U4
SYMBOL EIT_Digital\\probe_dig -1840 1584 R0
SYMATTR Value T=3
SYMATTR InstName U5
SYMBOL res 48 672 R0
SYMATTR InstName R11
SYMATTR Value 1k
SYMBOL res -32 672 R0
SYMATTR InstName R12
SYMATTR Value 1k
SYMBOL source-I 576 1456 R180
WINDOW 0 -49 69 Left 0
WINDOW 3 -92 13 Left 0
WINDOW 123 0 0 Left 0
WINDOW 39 0 0 Left 0
SYMATTR InstName I5
SYMATTR Value {I_lsb}
SYMBOL MDB_sym\\CurrentSwitch 528 1248 R0
WINDOW 39 13 125 Invisible 0
SYMATTR InstName U18
SYMBOL EIT_Digital\\bin_up_counter -2080 1760 R0
WINDOW 3 49 -62 Left 0
SYMATTR InstName U9
SYMBOL EIT_Digital\\probe_dig -1840 1744 R0
SYMATTR Value T=0
SYMATTR InstName U10
SYMBOL EIT_Digital\\probe_dig -1840 1776 R0
SYMATTR Value T=1
SYMATTR InstName U11
SYMBOL EIT_Digital\\probe_dig -1840 1808 R0
SYMATTR Value T=2
SYMATTR InstName U12
SYMBOL EIT_Digital\\probe_dig -1840 1840 R0
SYMATTR Value T=3
SYMATTR InstName U13
SYMBOL EIT_Digital\\bin_up_counter -2080 2016 R0
WINDOW 3 49 -62 Left 0
SYMATTR InstName U14
SYMBOL EIT_Digital\\probe_dig -1840 2000 R0
SYMATTR Value T=0
SYMATTR InstName U15
SYMBOL EIT_Digital\\probe_dig -1840 2032 R0
SYMATTR Value T=1
SYMATTR InstName U16
SYMBOL EIT_Digital\\probe_dig -1840 2064 R0
SYMATTR Value T=2
SYMATTR InstName U17
SYMBOL EIT_Digital\\probe_dig -1840 2096 R0
SYMATTR Value T=3
SYMATTR InstName U19
SYMBOL EIT_Digital\\TFF_R -672 1408 R0
SYMATTR InstName U8
SYMBOL EIT_Digital\\AND_3 -256 1392 R0
SYMATTR InstName U20
SYMBOL EIT_Digital\\AND_3 -256 1520 R0
SYMATTR InstName U21
SYMBOL EIT_Digital\\AND_3 -256 1648 R0
SYMATTR InstName U22
SYMBOL EIT_Digital\\AND_3 -256 1776 R0
SYMATTR InstName U23
SYMBOL EIT_Digital\\AND_3 -256 1904 R0
SYMATTR InstName U24
SYMBOL EIT_Digital\\AND_3 -256 2032 R0
SYMATTR InstName U25
SYMBOL EIT_Digital\\AND_3 -256 2160 R0
SYMATTR InstName U26
SYMBOL EIT_Digital\\AND_3 -256 1264 R0
SYMATTR InstName U27
SYMBOL EIT_Digital\\TFF_R -672 1648 R0
SYMATTR InstName U30
SYMBOL EIT_Digital\\TFF_R -672 1888 R0
SYMATTR InstName U33
SYMBOL EIT_Digital\\OR_2 -96 1296 R0
SYMATTR InstName U36
SYMBOL EIT_Digital\\OR_2 -96 1424 R0
SYMATTR InstName U37
SYMBOL EIT_Digital\\OR_2 -96 1552 R0
SYMATTR InstName U38
SYMBOL EIT_Digital\\OR_2 -96 1680 R0
SYMATTR InstName U39
SYMBOL EIT_Digital\\OR_2 -96 1808 R0
SYMATTR InstName U40
SYMBOL EIT_Digital\\OR_2 -96 1936 R0
SYMATTR InstName U41
SYMBOL EIT_Digital\\OR_2 -96 2064 R0
SYMATTR InstName U42
SYMBOL EIT_Digital\\OR_2 -96 2192 R0
SYMATTR InstName U43
SYMBOL EIT_Digital\\INVERTER -256 2304 R0
SYMATTR InstName U44
SYMBOL EIT_Digital\\OR_2 -432 2256 R0
SYMATTR InstName U45
SYMBOL EIT_Digital\\INVERTER -576 2304 R0
SYMATTR InstName U46
SYMBOL EIT_Digital\\INVERTER -864 1440 R0
SYMATTR InstName U49
SYMBOL EIT_Digital\\INVERTER -864 1680 R0
SYMATTR InstName U50
SYMBOL EIT_Digital\\INVERTER -848 1920 R0
SYMATTR InstName U51
SYMBOL EIT_Digital\\level-high -1168 2160 R0
SYMATTR InstName U55
SYMBOL EIT_Digital\\level-low -1168 2128 R0
SYMATTR InstName U56
SYMBOL EIT_Digital\\probe_dig 48 1328 R0
SYMATTR Value T=0
SYMATTR InstName U57
SYMBOL EIT_Digital\\probe_dig 48 1456 R0
SYMATTR Value T=1
SYMATTR InstName U58
SYMBOL EIT_Digital\\probe_dig 48 1584 R0
SYMATTR Value T=2
SYMATTR InstName U59
SYMBOL EIT_Digital\\probe_dig 48 1712 R0
SYMATTR Value T=3
SYMATTR InstName U60
SYMBOL EIT_Digital\\probe_dig 48 1840 R0
SYMATTR Value T=4
SYMATTR InstName U61
SYMBOL EIT_Digital\\probe_dig 48 1968 R0
SYMATTR Value T=5
SYMATTR InstName U62
SYMBOL EIT_Digital\\probe_dig 48 2096 R0
SYMATTR Value T=6
SYMATTR InstName U63
SYMBOL EIT_Digital\\probe_dig 48 2224 R0
SYMATTR Value T=7
SYMATTR InstName U64
SYMBOL EIT_Digital\\TFF_R -688 2576 R0
SYMATTR InstName U28
SYMBOL EIT_Digital\\AND_3 -272 2560 R0
SYMATTR InstName U29
SYMBOL EIT_Digital\\AND_3 -272 2688 R0
SYMATTR InstName U31
SYMBOL EIT_Digital\\AND_3 -272 2816 R0
SYMATTR InstName U32
SYMBOL EIT_Digital\\AND_3 -272 2944 R0
SYMATTR InstName U34
SYMBOL EIT_Digital\\AND_3 -272 3072 R0
SYMATTR InstName U35
SYMBOL EIT_Digital\\AND_3 -272 3200 R0
SYMATTR InstName U47
SYMBOL EIT_Digital\\AND_3 -272 3328 R0
SYMATTR InstName U48
SYMBOL EIT_Digital\\AND_3 -272 2432 R0
SYMATTR InstName U52
SYMBOL EIT_Digital\\TFF_R -688 2816 R0
SYMATTR InstName U53
SYMBOL EIT_Digital\\TFF_R -688 3056 R0
SYMATTR InstName U54
SYMBOL EIT_Digital\\OR_2 -112 2464 R0
SYMATTR InstName U65
SYMBOL EIT_Digital\\OR_2 -112 2592 R0
SYMATTR InstName U66
SYMBOL EIT_Digital\\OR_2 -112 2720 R0
SYMATTR InstName U67
SYMBOL EIT_Digital\\OR_2 -112 2848 R0
SYMATTR InstName U68
SYMBOL EIT_Digital\\OR_2 -112 2976 R0
SYMATTR InstName U69
SYMBOL EIT_Digital\\OR_2 -112 3104 R0
SYMATTR InstName U70
SYMBOL EIT_Digital\\OR_2 -112 3232 R0
SYMATTR InstName U71
SYMBOL EIT_Digital\\OR_2 -112 3360 R0
SYMATTR InstName U72
SYMBOL EIT_Digital\\INVERTER -272 3472 R0
SYMATTR InstName U73
SYMBOL EIT_Digital\\OR_2 -448 3424 R0
SYMATTR InstName U74
SYMBOL EIT_Digital\\INVERTER -592 3472 R0
SYMATTR InstName U75
SYMBOL EIT_Digital\\INVERTER -880 2608 R0
SYMATTR InstName U76
SYMBOL EIT_Digital\\INVERTER -880 2848 R0
SYMATTR InstName U77
SYMBOL EIT_Digital\\INVERTER -864 3088 R0
SYMATTR InstName U78
SYMBOL EIT_Digital\\probe_dig 32 2496 R0
SYMATTR Value T=0
SYMATTR InstName U81
SYMBOL EIT_Digital\\probe_dig 32 2624 R0
SYMATTR Value T=1
SYMATTR InstName U82
SYMBOL EIT_Digital\\probe_dig 32 2752 R0
SYMATTR Value T=2
SYMATTR InstName U83
SYMBOL EIT_Digital\\probe_dig 32 2880 R0
SYMATTR Value T=3
SYMATTR InstName U84
SYMBOL EIT_Digital\\probe_dig 32 3008 R0
SYMATTR Value T=4
SYMATTR InstName U85
SYMBOL EIT_Digital\\probe_dig 32 3136 R0
SYMATTR Value T=5
SYMATTR InstName U86
SYMBOL EIT_Digital\\probe_dig 32 3264 R0
SYMATTR Value T=6
SYMATTR InstName U87
SYMBOL EIT_Digital\\probe_dig 32 3392 R0
SYMATTR Value T=7
SYMATTR InstName U88
SYMBOL source-V -1888 2672 R0
WINDOW 123 0 0 Left 0
WINDOW 39 0 0 Left 0
WINDOW 3 -238 218 Left 0
SYMATTR Value PULSE(0 5 0 10n 10n 500u 1m)
SYMATTR InstName V3
SYMBOL source-I 576 1744 R180
WINDOW 0 -49 69 Left 0
WINDOW 3 -92 13 Left 0
WINDOW 123 0 0 Left 0
WINDOW 39 0 0 Left 0
SYMATTR InstName I1
SYMATTR Value {I_lsb}
SYMBOL MDB_sym\\CurrentSwitch 528 1536 R0
WINDOW 39 13 125 Invisible 0
SYMATTR InstName U6
SYMBOL source-I 576 2032 R180
WINDOW 0 -49 69 Left 0
WINDOW 3 -92 13 Left 0
WINDOW 123 0 0 Left 0
WINDOW 39 0 0 Left 0
SYMATTR InstName I2
SYMATTR Value {I_lsb}
SYMBOL MDB_sym\\CurrentSwitch 528 1824 R0
WINDOW 39 13 125 Invisible 0
SYMATTR InstName U7
SYMBOL source-I 576 2320 R180
WINDOW 0 -49 69 Left 0
WINDOW 3 -92 13 Left 0
WINDOW 123 0 0 Left 0
WINDOW 39 0 0 Left 0
SYMATTR InstName I3
SYMATTR Value {I_lsb}
SYMBOL MDB_sym\\CurrentSwitch 528 2112 R0
WINDOW 39 13 125 Invisible 0
SYMATTR InstName U89
SYMBOL source-I 992 1456 M180
WINDOW 0 -49 69 Left 0
WINDOW 3 -92 13 Left 0
WINDOW 123 0 0 Left 0
WINDOW 39 0 0 Left 0
SYMATTR InstName I4
SYMATTR Value {I_lsb}
SYMBOL MDB_sym\\CurrentSwitch 1040 1248 M0
WINDOW 39 13 125 Invisible 0
SYMATTR InstName U90
SYMBOL source-I 992 1744 M180
WINDOW 0 -49 69 Left 0
WINDOW 3 -92 13 Left 0
WINDOW 123 0 0 Left 0
WINDOW 39 0 0 Left 0
SYMATTR InstName I6
SYMATTR Value {I_lsb}
SYMBOL MDB_sym\\CurrentSwitch 1040 1536 M0
WINDOW 39 13 125 Invisible 0
SYMATTR InstName U91
SYMBOL source-I 992 2032 M180
WINDOW 0 -49 69 Left 0
WINDOW 3 -92 13 Left 0
WINDOW 123 0 0 Left 0
WINDOW 39 0 0 Left 0
SYMATTR InstName I7
SYMATTR Value {I_lsb}
SYMBOL MDB_sym\\CurrentSwitch 1040 1824 M0
WINDOW 39 13 125 Invisible 0
SYMATTR InstName U92
SYMBOL source-I 992 2320 M180
WINDOW 0 -49 69 Left 0
WINDOW 3 -92 13 Left 0
WINDOW 123 0 0 Left 0
WINDOW 39 0 0 Left 0
SYMATTR InstName I8
SYMATTR Value {I_lsb}
SYMBOL MDB_sym\\CurrentSwitch 1040 2112 M0
WINDOW 39 13 125 Invisible 0
SYMATTR InstName U93
SYMBOL source-I 576 2736 R180
WINDOW 0 -49 69 Left 0
WINDOW 3 -92 13 Left 0
WINDOW 123 0 0 Left 0
WINDOW 39 0 0 Left 0
SYMATTR InstName I9
SYMATTR Value {I_8lsb}
SYMBOL MDB_sym\\CurrentSwitch 528 2528 R0
WINDOW 39 13 125 Invisible 0
SYMATTR InstName U94
SYMBOL source-I 576 3024 R180
WINDOW 0 -49 69 Left 0
WINDOW 3 -92 13 Left 0
WINDOW 123 0 0 Left 0
WINDOW 39 0 0 Left 0
SYMATTR InstName I10
SYMATTR Value {I_8lsb}
SYMBOL MDB_sym\\CurrentSwitch 528 2816 R0
WINDOW 39 13 125 Invisible 0
SYMATTR InstName U95
SYMBOL source-I 576 3312 R180
WINDOW 0 -49 69 Left 0
WINDOW 3 -92 13 Left 0
WINDOW 123 0 0 Left 0
WINDOW 39 0 0 Left 0
SYMATTR InstName I11
SYMATTR Value {I_8lsb}
SYMBOL MDB_sym\\CurrentSwitch 528 3104 R0
WINDOW 39 13 125 Invisible 0
SYMATTR InstName U96
SYMBOL source-I 576 3600 R180
WINDOW 0 -49 69 Left 0
WINDOW 3 -92 13 Left 0
WINDOW 123 0 0 Left 0
WINDOW 39 0 0 Left 0
SYMATTR InstName I12
SYMATTR Value {I_8lsb}
SYMBOL MDB_sym\\CurrentSwitch 528 3392 R0
WINDOW 39 13 125 Invisible 0
SYMATTR InstName U97
SYMBOL source-I 992 2736 M180
WINDOW 0 -49 69 Left 0
WINDOW 3 -92 13 Left 0
WINDOW 123 0 0 Left 0
WINDOW 39 0 0 Left 0
SYMATTR InstName I13
SYMATTR Value {I_8lsb}
SYMBOL MDB_sym\\CurrentSwitch 1040 2528 M0
WINDOW 39 13 125 Invisible 0
SYMATTR InstName U98
SYMBOL source-I 992 3024 M180
WINDOW 0 -49 69 Left 0
WINDOW 3 -92 13 Left 0
WINDOW 123 0 0 Left 0
WINDOW 39 0 0 Left 0
SYMATTR InstName I14
SYMATTR Value {I_8lsb}
SYMBOL MDB_sym\\CurrentSwitch 1040 2816 M0
WINDOW 39 13 125 Invisible 0
SYMATTR InstName U99
SYMBOL source-I 992 3312 M180
WINDOW 0 -49 69 Left 0
WINDOW 3 -92 13 Left 0
WINDOW 123 0 0 Left 0
WINDOW 39 0 0 Left 0
SYMATTR InstName I15
SYMATTR Value {I_8lsb}
SYMBOL MDB_sym\\CurrentSwitch 1040 3104 M0
WINDOW 39 13 125 Invisible 0
SYMATTR InstName U100
SYMBOL source-I 992 3600 M180
WINDOW 0 -49 69 Left 0
WINDOW 3 -92 13 Left 0
WINDOW 123 0 0 Left 0
WINDOW 39 0 0 Left 0
SYMATTR InstName I16
SYMATTR Value {I_8lsb}
SYMBOL MDB_sym\\CurrentSwitch 1040 3392 M0
WINDOW 39 13 125 Invisible 0
SYMATTR InstName U101
SYMBOL EIT_Digital\\AND_4 -352 4016 R0
SYMATTR InstName U79
SYMBOL EIT_Digital\\INVERTER -1280 4112 R0
SYMATTR InstName U80
SYMBOL EIT_Digital\\INVERTER -1280 4208 R0
SYMATTR InstName U102
SYMBOL EIT_Digital\\INVERTER -1280 4304 R0
SYMATTR InstName U103
SYMBOL EIT_Digital\\INVERTER -1280 4400 R0
SYMATTR InstName U104
SYMBOL EIT_Digital\\AND_4 -352 4144 R0
SYMATTR InstName U105
SYMBOL EIT_Digital\\AND_4 -352 4272 R0
SYMATTR InstName U106
SYMBOL EIT_Digital\\AND_4 -352 4400 R0
SYMATTR InstName U107
SYMBOL EIT_Digital\\AND_4 -352 4512 R0
SYMATTR InstName U108
SYMBOL EIT_Digital\\AND_4 -352 4640 R0
SYMATTR InstName U109