Version 4
SHEET 1 944 680
WIRE -272 -80 -720 -80
WIRE 288 -64 240 -64
WIRE 336 -64 288 -64
WIRE -336 -16 -592 -16
WIRE 240 -16 240 -64
WIRE 336 -16 336 -64
WIRE -720 16 -720 -80
WIRE -592 16 -592 -16
WIRE -272 80 -272 -80
WIRE -144 80 -272 80
WIRE -80 80 -144 80
WIRE 176 80 112 80
WIRE 240 80 240 64
WIRE 240 80 176 80
WIRE -336 112 -336 -16
WIRE -176 112 -336 112
WIRE -80 112 -176 112
WIRE 176 112 112 112
WIRE 336 112 336 64
WIRE 336 112 176 112
WIRE -720 128 -720 96
WIRE -592 128 -592 96
WIRE -336 128 -336 112
WIRE 32 272 32 208
WIRE 32 368 32 352
FLAG 32 368 0
FLAG -176 112 clk2
FLAG 176 80 out+
FLAG 176 112 out-
FLAG -144 80 sw1
FLAG -720 128 0
FLAG -592 128 0
FLAG 288 -64 0
SYMBOL source-I 32 352 R180
WINDOW 0 -49 69 Left 0
WINDOW 3 -92 13 Left 0
WINDOW 123 0 0 Left 0
WINDOW 39 0 0 Left 0
SYMATTR InstName I1
SYMATTR Value {I_lsb}
SYMBOL MDB_sym\\CurrentSwitch -16 96 R0
SYMATTR InstName U1
SYMATTR SpiceLine TD1=10n TD2=10n TdInv=10n
SYMATTR Value TD1=10n TD2=10n TdInv=10n
SYMATTR Value2 TD1=10n TD2=10n TdInv=10n
SYMBOL source-V -720 0 R0
WINDOW 3 -18 192 Left 0
WINDOW 123 0 0 Left 0
WINDOW 39 0 0 Left 0
SYMATTR InstName V1
SYMATTR Value PULSE(0 5 0 10n 10n 5m 10m)
SYMBOL source-V -592 0 R0
WINDOW 3 -56 -39 Left 0
WINDOW 123 0 0 Left 0
WINDOW 39 0 0 Left 0
SYMATTR InstName V2
SYMATTR Value PULSE(0 5 0 100n 100n 500u 1m)
SYMBOL res 224 -32 R0
SYMATTR InstName R1
SYMATTR Value 1k
SYMBOL res 320 -32 R0
SYMATTR InstName R2
SYMATTR Value 1k
TEXT -240 392 Left 0 !.tran 100m
TEXT 640 -32 Left 0 ;.param Td1=10n\n.param Td2=10n\n.param TdInv=10n
TEXT 224 160 Left 0 !.param vpwr$_digital=5V\n.param I_lsb=100u
