Version 4
SHEET 1 1288 920
WIRE 160 -128 80 -128
WIRE 352 -128 240 -128
WIRE 432 -128 352 -128
WIRE 608 -128 512 -128
WIRE 640 -128 608 -128
WIRE 240 -112 240 -128
WIRE 512 -112 512 -128
WIRE 160 -96 160 -128
WIRE 432 -96 432 -128
WIRE 160 -16 160 -48
WIRE 240 -16 240 -32
WIRE 432 -16 432 -48
WIRE 512 -16 512 -32
WIRE 128 176 80 176
WIRE 240 176 208 176
WIRE 352 176 240 176
WIRE 432 176 352 176
WIRE 624 176 512 176
WIRE 656 176 624 176
WIRE 240 192 240 176
WIRE 512 192 512 176
WIRE 432 208 432 176
WIRE 240 288 240 256
WIRE 432 288 432 256
WIRE 512 288 512 272
WIRE 128 464 80 464
WIRE 240 464 208 464
WIRE 352 464 240 464
WIRE 416 464 352 464
WIRE 624 464 576 464
WIRE 656 464 624 464
WIRE -64 480 -80 480
WIRE -48 480 -64 480
WIRE 240 480 240 464
WIRE -80 496 -80 480
WIRE 240 576 240 544
FLAG -80 576 0
FLAG 240 288 0
FLAG 352 176 yG1
FLAG -64 480 stim
FLAG 80 176 stim
FLAG 80 -128 stim
FLAG 160 -16 0
FLAG 240 -16 0
FLAG 352 -128 yG
FLAG 432 -16 0
FLAG 512 -16 0
FLAG 608 -128 _yGG
FLAG 432 288 0
FLAG 512 288 0
FLAG 624 176 _yG1G
FLAG 240 576 0
FLAG 352 464 yG2
FLAG 80 464 stim
FLAG 624 464 _yG2G
SYMBOL res 112 192 R270
WINDOW 0 25 56 VTop 2
WINDOW 3 7 56 VBottom 2
SYMATTR InstName R1
SYMATTR Value 1k
SYMBOL cap 224 192 R0
SYMATTR InstName C1
SYMATTR Value 1µ
SYMBOL MDB_sym\\source-V -80 480 M0
WINDOW 123 -79 56 Left 2
WINDOW 39 0 0 Left 2
SYMATTR InstName V1
SYMATTR Value 0
SYMATTR Value2 AC 1
SYMBOL crtl-V-V 240 -128 R0
WINDOW 3 -147 198 Left 2
SYMATTR InstName E1
SYMATTR Value laplace=1/(s*1k*1u+1)
SYMBOL crtl-V-V 512 -128 R0
WINDOW 3 -122 201 Left 2
SYMATTR InstName E2
SYMATTR Value laplace=(s*1k*1u+1)
SYMBOL crtl-V-V 512 176 R0
WINDOW 3 -121 197 Left 2
SYMATTR InstName E3
SYMATTR Value laplace=(s*1k*1u+1)
SYMBOL res 112 480 R270
WINDOW 0 25 56 VTop 2
WINDOW 3 7 56 VBottom 2
SYMATTR InstName R2
SYMATTR Value 1k
SYMBOL cap 224 480 R0
SYMATTR InstName C2
SYMATTR Value 1µ
SYMBOL MDB_sym\\bigQuest 496 512 R0
SYMATTR InstName X1
TEXT -124 392 Left 2 !.ac oct 100 1 10k
TEXT 144 24 Left 2 ;G
TEXT 440 24 Left 2 ;C=1/G
TEXT 144 320 Left 2 ;G1
TEXT 440 328 Left 2 ;C=1/G1
TEXT 144 608 Left 2 ;G2
TEXT 456 608 Left 2 ;C=1/G2
RECTANGLE Normal 304 48 128 -160 2
RECTANGLE Normal 312 344 128 128 2
RECTANGLE Normal 576 48 400 -160 2
RECTANGLE Normal 584 344 400 128 2
RECTANGLE Normal 312 632 128 416 2
RECTANGLE Normal 584 632 400 416 2
