Version 4
SHEET 1 880 680
WIRE 176 -368 128 -368
WIRE 192 -368 176 -368
WIRE 176 -336 128 -336
WIRE 192 -336 176 -336
WIRE 336 -160 48 -160
WIRE 496 -144 400 -144
WIRE 528 -144 496 -144
WIRE 336 -128 320 -128
WIRE 320 -80 320 -128
WIRE 48 112 48 -160
WIRE 64 112 48 112
WIRE 96 112 64 112
WIRE 240 112 176 112
WIRE 336 112 240 112
WIRE 368 112 336 112
WIRE 384 112 368 112
WIRE 48 144 48 112
WIRE 336 144 336 112
WIRE 240 160 240 112
WIRE 48 256 48 224
WIRE 240 256 240 224
WIRE 336 256 336 224
FLAG 240 256 0
FLAG 48 256 0
FLAG 368 112 out
FLAG 64 112 stim
FLAG 336 256 0
FLAG 176 -368 V+
FLAG 176 -336 V-
FLAG 368 -176 V-
FLAG 368 -112 V+
FLAG 320 -80 0
FLAG 496 -144 op
SYMBOL ind 320 128 R0
WINDOW 0 30 56 VTop 2
WINDOW 3 6 56 VBottom 2
WINDOW 39 -20 56 VBottom 2
SYMATTR InstName L1
SYMATTR Value 100µ
SYMATTR SpiceLine Rser=5u
SYMBOL res 80 128 R270
WINDOW 0 25 56 VTop 2
WINDOW 3 7 56 VBottom 2
SYMATTR InstName R1
SYMATTR Value 1k
SYMBOL cap 224 160 R0
SYMATTR InstName C1
SYMATTR Value {C1}
SYMBOL MDB_sym\\source-V 48 128 R0
WINDOW 123 28 107 Left 2
WINDOW 39 0 0 Left 2
SYMATTR InstName V1
SYMATTR Value ""
SYMATTR Value2 AC 1
SYMBOL EXTRA\\ExtraOpamps\\LM358_ST 368 -144 M180
SYMATTR InstName U1
SYMBOL MDB_sym\\source-Vmarker 128 -368 R0
SYMATTR Value V={Vsup}
SYMATTR InstName U2
SYMBOL MDB_sym\\source-Vmarker 128 -336 R0
SYMATTR Value V={-Vsup}
SYMATTR InstName U3
TEXT 20 280 Left 2 !.ac oct 100 1 10meg
TEXT 24 336 Left 2 ;.step param c1 1p 75p 5p
TEXT -8 392 Left 2 !.param Vsup = 10V\n+ C1 = 1u
