Version 4
SHEET 1 880 680
WIRE -1040 -288 -1232 -288
WIRE -816 -288 -1040 -288
WIRE -784 -288 -816 -288
WIRE -1232 -240 -1232 -288
WIRE -1040 -240 -1040 -288
WIRE -784 -240 -784 -288
WIRE -1232 -128 -1232 -160
WIRE -1200 -128 -1232 -128
WIRE -1040 -128 -1040 -160
WIRE -1040 -128 -1072 -128
WIRE -784 -128 -784 -160
WIRE -1040 -48 -1040 -128
WIRE -880 -48 -1040 -48
WIRE -784 -32 -816 -32
WIRE -1232 -16 -1232 -128
WIRE -880 -16 -1232 -16
WIRE -1040 16 -1040 -48
WIRE -784 32 -784 -32
WIRE -1232 160 -1232 -16
WIRE -1232 160 -1312 160
WIRE -1040 160 -1040 96
WIRE -1040 160 -1120 160
WIRE -1232 192 -1232 160
WIRE -1040 192 -1040 160
WIRE -784 224 -784 112
WIRE -1312 240 -1312 160
WIRE -1296 240 -1312 240
WIRE -1120 240 -1120 160
WIRE -1104 240 -1120 240
WIRE -1232 352 -1232 288
WIRE -1040 352 -1040 288
WIRE -784 352 -784 304
FLAG -1200 -128 a
FLAG -1072 -128 b
FLAG -1040 352 0
FLAG -1232 352 0
FLAG -784 352 0
FLAG -816 -288 bg
FLAG -784 -128 0
SYMBOL EIT_Semiconductors\\npn -1296 192 R0
SYMATTR InstName Qa1
SYMATTR Value CA3046
SYMBOL EIT_Semiconductors\\npn -1104 192 R0
SYMATTR InstName Qb1
SYMATTR Value CA3046
SYMBOL res -1248 -256 R0
SYMATTR InstName Ra1
SYMATTR Value 1k
SYMBOL res -1056 -256 R0
SYMATTR InstName Rb1
SYMATTR Value 10k
SYMBOL res -1056 0 R0
SYMATTR InstName R2
SYMATTR Value 1k
SYMBOL EIT_Semiconductors\\op_3 -848 -32 R0
WINDOW 123 133 17 Left 0
WINDOW 3 134 -16 Left 0
SYMATTR InstName U2
SYMBOL res -800 16 R0
SYMATTR InstName R6
SYMATTR Value 3k
SYMBOL res -800 208 R0
SYMATTR InstName R7
SYMATTR Value 1k
SYMBOL source-V -784 -256 R0
WINDOW 123 0 0 Left 0
WINDOW 39 0 0 Left 0
SYMATTR InstName Vbg
SYMATTR Value 1
TEXT -1200 -336 Left 0 !;dc vbg 0 1.7 0.01
TEXT -1528 -24 Left 0 !.dc Vbg 0 1.7 0.01
TEXT -1520 72 Left 0 !.param Rdc=100meg\n.param Rop=1m\n.param Rs=10k
