Version 4
SHEET 1 1056 964
WIRE 144 -80 112 -80
WIRE 304 -80 144 -80
WIRE 528 -80 304 -80
WIRE 560 -80 528 -80
WIRE 752 -80 752 -96
WIRE 528 -64 528 -80
WIRE 144 -48 144 -80
WIRE 304 -48 304 -80
WIRE 752 16 752 0
WIRE 288 64 272 64
WIRE 304 64 304 32
WIRE 304 64 288 64
WIRE 592 64 304 64
WIRE 240 80 224 80
WIRE 256 80 240 80
WIRE 688 80 656 80
WIRE 144 96 144 32
WIRE 272 96 144 96
WIRE 592 96 272 96
WIRE 688 112 688 80
WIRE 304 144 304 64
WIRE 416 144 304 144
WIRE 528 144 528 16
WIRE 144 176 144 96
WIRE 304 176 304 144
WIRE 416 176 416 144
WIRE 368 224 208 224
WIRE 400 224 368 224
WIRE 528 224 528 192
WIRE 528 224 480 224
WIRE 688 224 688 192
WIRE 688 224 640 224
WIRE 736 224 688 224
WIRE 768 224 736 224
WIRE 688 256 688 224
WIRE 528 304 528 224
WIRE 144 320 144 272
WIRE 208 320 144 320
WIRE 304 320 304 272
WIRE 304 320 288 320
WIRE 416 320 416 272
WIRE 416 320 304 320
WIRE 144 336 144 320
WIRE 688 368 688 336
WIRE 144 432 144 416
WIRE 528 432 528 368
FLAG 144 96 a
FLAG 288 64 b
FLAG 688 368 0
FLAG 112 -80 Vcc
IOPIN 112 -80 In
FLAG 144 432 0
FLAG 400 224 ref
FLAG 688 80 op
FLAG 528 432 0
FLAG 752 -96 ref
FLAG 240 80 ba
FLAG 752 16 0
DATAFLAG 736 224 "round(1e4*$)*1e-4"
DATAFLAG 224 80 "round(1e4*$)*1e-4"
SYMBOL EIT_Semiconductors\\npn 208 176 M0
WINDOW 0 -13 76 Left 2
WINDOW 3 59 26 Left 2
SYMATTR InstName Qa
SYMATTR Value CA3046
SYMBOL EIT_Semiconductors\\npn 368 176 M0
WINDOW 0 -14 76 Left 2
WINDOW 3 50 27 Left 2
SYMATTR InstName Qb
SYMATTR Value CA3046 5
SYMBOL res 128 -64 R0
SYMATTR InstName Ra
SYMATTR Value 1k
SYMBOL res 288 -64 R0
SYMATTR InstName Rb
SYMATTR Value 10k
SYMBOL res 304 304 R90
WINDOW 0 7 56 VBottom 2
WINDOW 3 25 56 VTop 2
SYMATTR InstName R2
SYMATTR Value 1k
SYMBOL res 128 320 R0
SYMATTR InstName R1
SYMATTR Value 925
SYMBOL res 672 96 R0
SYMATTR InstName R5
SYMATTR Value {Rf}
SYMBOL res 672 240 R0
SYMATTR InstName R6
SYMATTR Value 1k
SYMBOL EIT_Semiconductors\\op_3 624 80 M180
WINDOW 3 -150 214 Invisible 2
WINDOW 123 121 24 Invisible 2
SYMATTR InstName U2
SYMATTR Value Vp={Vcc} Vm={-Vcc} Ilim=20m
SYMBOL EIT_Semiconductors\\npn 480 176 M0
WINDOW 0 -24 75 Left 2
WINDOW 3 56 68 Invisible 2
SYMATTR InstName Qs
SYMATTR Value CA3046
SYMBOL res 512 -80 R0
SYMATTR InstName Rs
SYMATTR Value 10k
SYMBOL diode 512 304 R0
SYMATTR InstName Ds
SYMBOL MDB_sym\\source-Vmarker 560 -80 M0
SYMATTR Value V={Vcc}
SYMATTR InstName U1
SYMBOL MDB_sym\\arrBowActive 272 80 R0
SYMATTR InstName U3
SYMBOL MDB_sym\\jumperSetable 528 176 R90
WINDOW 3 290 55 VCenter 2
SYMATTR InstName U5
SYMATTR Value close={starthelp}
SYMBOL MDB_sym\\source-V 752 -96 R0
WINDOW 123 0 0 Left 2
WINDOW 39 0 0 Left 2
SYMATTR InstName V1
SYMATTR Value 1.25
TEXT 336 -152 Left 2 ;.tran 30m startup
TEXT 136 -208 Left 2 !.param BG=1\n+ Vcc = 10V\n+ Rf = 3k\n+ starthelp = 1
TEXT 536 -152 Left 2 !.dc V1 0.2 1.6 5m
TEXT 336 -216 Left 2 !;.step param ref 0.2 1.6 10m\n.step param starthelp list 1 0
