Version 4
SHEET 1 880 680
WIRE 192 -176 128 -176
WIRE 128 -160 128 -176
WIRE -32 -112 -96 -112
WIRE -16 -112 -32 -112
WIRE 128 -64 128 -80
WIRE -176 96 -208 96
WIRE 0 96 -96 96
WIRE 208 96 192 96
WIRE 0 112 0 96
WIRE -208 128 -208 96
WIRE 208 128 208 96
WIRE -208 224 -208 208
WIRE 0 224 0 192
WIRE 208 224 208 208
FLAG -208 224 0
FLAG 0 224 0
FLAG 208 224 0
FLAG -32 -112 P1
FLAG 0 96 x
FLAG -208 96 V1
FLAG 208 96 V2
FLAG 128 -64 0
SYMBOL MDB_sym\\source-V -208 112 R0
WINDOW 0 33 57 Left 2
WINDOW 3 -51 220 Left 2
WINDOW 123 0 0 Left 2
WINDOW 39 0 0 Left 2
SYMATTR InstName V1
SYMATTR Value SINE(0 {sqrt(4*Rg*1m*10**(P1_log/10)) } {f1})
SYMBOL res -192 112 R270
WINDOW 0 25 56 VTop 2
WINDOW 3 7 56 VBottom 2
SYMATTR InstName R1
SYMATTR Value {Rg}
SYMBOL res -16 96 R0
SYMATTR InstName R2
SYMATTR Value {Rg}
SYMBOL MDB_sym\\source-V 208 112 R0
WINDOW 123 0 0 Left 2
WINDOW 39 0 0 Left 2
SYMATTR InstName V2
SYMATTR Value SINE(0 {sqrt(P1*Rg/3)*0+0*sqrt(2)} {f2})
SYMBOL res 208 112 M270
WINDOW 0 25 56 VTop 2
WINDOW 3 7 56 VBottom 2
SYMATTR InstName R3
SYMATTR Value {Rg}
SYMBOL MDB_sym\\source-Vmarker -96 -112 R0
SYMATTR Value V={P1}
SYMATTR InstName U1
SYMBOL MDB_sym\\source-V 128 -176 R0
WINDOW 0 33 57 Left 2
WINDOW 3 33 80 Left 2
WINDOW 123 0 0 Left 2
WINDOW 39 0 0 Left 2
SYMATTR InstName V3
SYMATTR Value SINE(0 1 {10*f1})
TEXT -240 -64 Left 2 !.param P1_log=0 ;dBm\n+ P1 = {10**(P1_log/10)*1m}\n+ Rg = 50\n+ f1 = 100k\n+ f2 = {3*f1}
TEXT -252 304 Left 2 !.tran 0 {4/f1} {.99/f1}
RECTANGLE Normal -80 264 -256 48 2
RECTANGLE Normal 272 264 96 48 2
