Version 4
SHEET 1 1092 680
WIRE 96 -256 0 -256
WIRE 96 -240 96 -256
WIRE 0 -192 0 -256
WIRE 96 -128 96 -160
WIRE 128 -128 96 -128
WIRE 96 -112 96 -128
WIRE 0 -64 0 -112
WIRE 16 -64 0 -64
WIRE 32 -64 16 -64
WIRE 0 16 0 -64
WIRE 96 16 96 -16
WIRE 0 160 0 96
WIRE 96 160 96 96
FLAG 0 160 0
FLAG 96 160 0
FLAG 16 -64 B2
FLAG 128 -128 C2
SYMBOL MDB_sym\\source-Vmarker 0 -256 R0
SYMATTR Value V={Vpl}
SYMATTR InstName U1
SYMBOL res -16 -208 R0
SYMATTR InstName R6
SYMATTR Value {R3}
SYMBOL res -16 0 R0
SYMATTR InstName R7
SYMATTR Value {R4}
SYMBOL res 80 0 R0
SYMATTR InstName R8
SYMATTR Value {R5}
SYMBOL EIT_Semiconductors\\npn 32 -112 R0
SYMATTR InstName Q2
SYMATTR Value BDX77
SYMBOL ind 80 -256 R0
WINDOW 39 -6 -19 Left 2
SYMATTR InstName L1
SYMATTR Value {L1}
SYMATTR SpiceLine Rser=.01
TEXT 432 -264 Left 2 !.param MATLAB_PARAM=1\n+ VT = 26m\n+ Vpl = 15V\n+ x=.1\n+ fres=1.07meg\n+ fmic = 5k\n+ fsw =1k\n+ Rp = 10k\n+ Tsim = 500m\n+ Ic0s = 2mA\n+ Vbe0 = .6V\n+ beta = 339\n+ f0 = 5k\n+ C1=4.7u\n+ C2=4.7u\n+ C3=10p\n+ C4=10p\n+ C5=47p\n+ C6=22p \n+ C7=87p\n+ R1=120k\n+ R2=4k7\n+ R3=4k7\n+ R4=4k7\n+ R5=1k\n+ RL=10meg\n+ L1v={ 1/(4*pi**2*fres**2*C6)}\n+ alpha={beta/(1+beta)}\n+ Ic0c ={ (Vpl-Vbe0*(1+(R1+R2)/( Rp*(1-x) ))) / (alpha*R2 + R1/beta)  }\n+ L1={L1v}
TEXT -136 336 Left 2 !.model npnx npn (IS=9.198E-14 NE=1.65 BF=338.8 )
TEXT -240 424 Left 2 ;.step param x list 0.1 .5 .95
TEXT -252 444 Left 2 ;.ac oct 100 10 1000meg
TEXT -64 400 Left 2 ;2N3563
TEXT -228 484 Left 2 ;.tran {Tsim}
TEXT -232 512 Left 2 !.options plotwinsize=0
TEXT -136 256 Left 2 !.step param R3 1 10e3 100
TEXT -176 120 Left 2 !.op
