Version 4
SHEET 1 1072 1444
WIRE -240 80 -272 80
WIRE -96 80 -160 80
WIRE -16 80 -32 80
WIRE 64 80 -16 80
WIRE 144 80 64 80
WIRE 224 80 144 80
WIRE 256 80 224 80
WIRE 320 80 256 80
WIRE 400 80 320 80
WIRE -272 128 -272 80
WIRE 64 128 64 80
WIRE 144 128 144 80
WIRE 224 128 224 80
WIRE 320 128 320 80
WIRE 400 128 400 80
WIRE -96 160 -144 160
WIRE -16 160 -16 80
WIRE -16 160 -32 160
WIRE 656 176 592 176
WIRE 704 176 656 176
WIRE 592 192 592 176
WIRE -144 208 -144 160
WIRE 64 256 64 208
WIRE 144 256 144 208
WIRE 144 256 64 256
WIRE 224 256 224 208
WIRE 224 256 144 256
WIRE 272 256 224 256
WIRE 320 256 320 192
WIRE 320 256 272 256
WIRE 400 256 400 208
WIRE 400 256 320 256
WIRE -272 288 -272 208
WIRE 272 288 272 256
WIRE 592 288 592 272
WIRE -144 320 -144 288
WIRE 576 400 512 400
WIRE 624 400 576 400
WIRE 512 416 512 400
WIRE 512 512 512 496
WIRE -240 608 -336 608
WIRE -128 608 -240 608
WIRE -32 608 -128 608
WIRE 0 608 -32 608
WIRE 64 608 0 608
WIRE -336 656 -336 608
WIRE -240 656 -240 608
WIRE -128 656 -128 608
WIRE -32 656 -32 608
WIRE 64 656 64 608
WIRE -336 768 -336 736
WIRE -240 784 -240 736
WIRE -128 784 -128 736
WIRE -128 784 -240 784
WIRE -32 784 -32 736
WIRE -32 784 -128 784
WIRE 64 784 64 720
WIRE 64 784 -32 784
WIRE -32 816 -32 784
WIRE 272 1056 176 1056
WIRE 352 1056 272 1056
WIRE 176 1072 176 1056
WIRE 272 1072 272 1056
WIRE 352 1072 352 1056
WIRE -256 1088 -256 1072
WIRE -224 1088 -256 1088
WIRE -96 1088 -144 1088
WIRE 0 1088 -96 1088
WIRE -256 1136 -256 1088
WIRE -96 1136 -96 1088
WIRE 0 1136 0 1088
WIRE 272 1168 272 1152
WIRE 352 1168 352 1136
WIRE 176 1184 176 1152
WIRE -256 1248 -256 1216
WIRE 272 1296 176 1296
WIRE 352 1296 272 1296
WIRE 176 1312 176 1296
WIRE 272 1312 272 1296
WIRE 352 1312 352 1296
WIRE 272 1408 272 1392
WIRE 352 1408 352 1392
WIRE 176 1424 176 1392
FLAG -272 288 0
FLAG 512 512 0
FLAG 576 400 Qges
FLAG 256 80 Us
FLAG -144 320 0
FLAG 272 288 0
FLAG 176 1184 0
FLAG 272 1168 0
FLAG 592 288 0
FLAG 656 176 Qq
FLAG 0 608 Us2
FLAG -32 816 0
FLAG -336 768 0
FLAG 352 1168 0
FLAG 176 1424 0
FLAG 272 1408 0
FLAG 352 1408 0
FLAG -256 1248 0
FLAG 0 1216 0
FLAG -96 1216 0
SYMBOL res 208 112 R0
SYMATTR InstName Rpl
SYMATTR Value {Rpl}
SYMBOL ind 128 112 R0
SYMATTR InstName L1
SYMATTR Value {L}
SYMBOL cap 304 128 R0
SYMATTR InstName C1
SYMATTR Value {C}
SYMBOL res 384 112 R0
SYMATTR InstName Rpc
SYMATTR Value {Rpc}
SYMBOL res 48 112 R0
SYMATTR InstName Rg
SYMATTR Value 100t
SYMBOL source-V 512 400 R0
WINDOW 123 0 0 Left 2
WINDOW 39 0 0 Left 2
SYMATTR InstName V1
SYMATTR Value {Ql*Qc/(Ql+Qc)}
SYMBOL source-V -272 112 R0
WINDOW 123 28 109 Left 2
WINDOW 39 0 0 Left 2
SYMATTR InstName V2
SYMATTR Value ""
SYMATTR Value2 AC 1
SYMBOL res -144 64 R90
WINDOW 0 7 56 VBottom 2
WINDOW 3 25 56 VTop 2
SYMATTR InstName R1
SYMATTR Value {Rg}
SYMBOL source-I -144 208 R0
WINDOW 123 29 101 Left 2
WINDOW 39 0 0 Left 2
SYMATTR InstName I1
SYMATTR Value ""
SYMATTR Value2 AC 1
SYMBOL MDB_sym\\jumperRes -64 96 R0
SYMATTR InstName U1
SYMBOL res 256 1056 R0
SYMATTR InstName R2
SYMATTR Value 100k
SYMBOL cap 336 1072 R0
SYMATTR InstName C3
SYMATTR Value 1n
SYMBOL source-V 592 176 R0
WINDOW 123 0 0 Left 2
WINDOW 39 0 0 Left 2
SYMATTR InstName V4
SYMATTR Value {Rpc*Rpl/(Rpc+Rpl)*2*pi*40meg*C}
SYMBOL res -48 640 R0
SYMATTR InstName Rpl1
SYMATTR Value 2k
SYMBOL ind -144 640 R0
SYMATTR InstName L2
SYMATTR Value 153n
SYMBOL cap 48 656 R0
SYMATTR InstName C2
SYMATTR Value 103p
SYMBOL source-I -336 656 R0
WINDOW 123 -40 158 Left 2
WINDOW 39 0 0 Left 2
SYMATTR InstName I2
SYMATTR Value ""
SYMATTR Value2 AC 1m
SYMBOL res -256 640 R0
SYMATTR InstName Rg1
SYMATTR Value 2k
SYMBOL source-I 176 1072 R0
WINDOW 123 -72 92 Left 2
WINDOW 39 0 0 Left 2
SYMATTR InstName I3
SYMATTR Value ""
SYMATTR Value2 AC 1
SYMBOL res 256 1296 R0
SYMATTR InstName R3
SYMATTR Value 100k
SYMBOL ind 336 1296 R0
SYMATTR InstName L3
SYMATTR Value 1n
SYMBOL source-V 176 1296 R0
WINDOW 123 28 109 Left 2
WINDOW 39 0 0 Left 2
SYMATTR InstName V3
SYMATTR Value ""
SYMATTR Value2 AC 1
SYMBOL source-V -256 1120 R0
WINDOW 3 28 137 Left 2
WINDOW 123 28 109 Left 2
WINDOW 39 0 0 Left 2
SYMATTR InstName V5
SYMATTR Value {sqrt(2m*100)}
SYMATTR Value2 AC 1
SYMBOL res -240 1104 R270
WINDOW 0 25 56 VTop 2
WINDOW 3 7 56 VBottom 2
SYMATTR InstName R4
SYMATTR Value 50
SYMBOL res -112 1120 R0
SYMATTR InstName Ra
SYMATTR Value 125
SYMBOL res -16 1120 R0
SYMATTR InstName Rb
SYMATTR Value 83
TEXT -48 -128 Left 2 ;QL = w*L/R_Ls = R_Lp/(w*L)\nQC = 1/(R_Cs*w*C) = R_Cp*w*L
TEXT 560 -152 Left 2 !.param f0 = 40meg\n.param w0 = {2*pi*f0}\n.param Ql = 70\n.param Qc = 200 \n; _____________\n.param L = 153n\n.param C = 103p\n.param Rpc = Qc/(w0*C)\n.param Rpl = Ql*w0*L
TEXT -4 394 Left 2 !.tran 5u
TEXT 200 8 Left 2 !.ic V(Us)=1
TEXT 464 656 Left 2 !.param Rv = 5k\n.param C1 = 20p\n.param L1 = 1/(4*pi**2*(100meg)**2*C1)
TEXT 464 760 Left 2 !.param Rg=100t
TEXT 472 824 Left 2 ;.step param Rg 50 5k 500
TEXT -168 528 Left 2 ;.ic I(L2)=1.41m
RECTANGLE Normal 400 1200 224 1024 2
RECTANGLE Normal 400 1440 224 1264 2
