Version 4
SHEET 1 956 1212
WIRE -224 128 -240 128
WIRE -112 128 -112 112
WIRE -112 128 -224 128
WIRE -64 128 -112 128
WIRE 32 128 -64 128
WIRE 64 128 32 128
WIRE 112 128 96 128
WIRE 176 128 112 128
WIRE 192 128 176 128
WIRE 400 128 352 128
WIRE 480 128 400 128
WIRE -112 144 -112 128
WIRE 400 144 400 128
WIRE 480 144 480 128
WIRE -240 160 -240 128
WIRE 112 176 112 160
WIRE 208 176 208 160
WIRE 304 176 304 160
WIRE 112 192 112 176
WIRE 400 240 400 224
WIRE 480 240 480 208
WIRE -240 256 -240 240
WIRE -112 256 -112 224
WIRE 112 352 112 320
WIRE 144 352 144 304
WIRE 144 352 112 352
WIRE 32 528 32 128
WIRE 64 528 32 528
WIRE 112 528 96 528
WIRE 176 528 112 528
WIRE 192 528 176 528
WIRE 384 528 352 528
WIRE 400 528 384 528
WIRE 112 576 112 560
WIRE 208 576 208 560
WIRE 304 576 304 560
WIRE 480 576 480 528
WIRE 112 592 112 576
WIRE 480 688 480 656
WIRE 112 752 112 720
WIRE 144 752 144 704
WIRE 144 752 112 752
WIRE 464 880 432 880
WIRE 496 880 464 880
WIRE 432 912 432 880
WIRE 432 1008 432 992
WIRE 464 1056 432 1056
WIRE 496 1056 464 1056
WIRE 432 1088 432 1056
WIRE 208 1152 192 1152
WIRE 304 1152 288 1152
WIRE 192 1168 192 1152
WIRE 432 1184 432 1168
FLAG 192 1152 U
FLAG 304 1152 Vin
FLAG 192 1168 0
FLAG 432 1008 0
FLAG 432 1184 0
FLAG 464 1056 Cz
FLAG 464 880 realz
FLAG 176 128 Z1a
FLAG 400 128 Z2a
FLAG 304 176 0
FLAG 208 176 0
FLAG 144 208 0
FLAG -240 256 0
FLAG -224 128 u1
FLAG 304 576 0
FLAG 208 576 0
FLAG 144 608 0
FLAG 112 176 Zsa
FLAG 112 576 Zsb
FLAG 176 528 Z1b
FLAG 384 528 Z2b
FLAG 400 240 0
FLAG 480 240 0
FLAG 480 688 0
FLAG -64 128 Zin
FLAG -112 256 0
SYMBOL res 192 1168 R270
WINDOW 0 25 56 VTop 2
WINDOW 3 7 56 VBottom 2
SYMATTR InstName Rg1
SYMATTR Value 50
SYMBOL source-V 432 896 R0
WINDOW 123 0 0 Left 2
WINDOW 39 0 0 Left 2
SYMATTR InstName V1
SYMATTR Value {realZ}
SYMBOL source-V 432 1072 R0
WINDOW 123 0 0 Left 2
WINDOW 39 0 0 Left 2
SYMATTR InstName V2
SYMATTR Value {Cz}
SYMBOL res 384 128 R0
WINDOW 3 36 63 Left 2
SYMATTR Value 80
SYMATTR InstName R4
SYMBOL cap 464 144 R0
SYMATTR InstName C2
SYMATTR Value 9.2p
SYMBOL MDB_sym\\tlineFixed 368 144 R0
WINDOW 0 -115 -39 Bottom 2
WINDOW 3 -115 54 Top 2
SYMATTR InstName UA1
SYMATTR Value Td={L1a/Cu}
SYMBOL res -128 128 R0
SYMATTR InstName R1
SYMATTR Value 50
SYMBOL MDB_sym\\tlineFixed 128 368 M90
WINDOW 0 -119 48 VTop 2
WINDOW 3 -70 97 VBottom 2
SYMATTR InstName UA2
SYMATTR Value Td={L2a/Cu}
SYMBOL MDB_sym\\tlineFixed 368 544 R0
WINDOW 0 -115 -39 Bottom 2
WINDOW 3 -115 54 Top 2
SYMATTR InstName UA3
SYMATTR Value Td={L1b/Cu}
SYMBOL MDB_sym\\tlineFixed 128 768 M90
WINDOW 0 -119 48 VTop 2
WINDOW 3 -70 97 VBottom 2
SYMATTR InstName UA4
SYMATTR Value Td={L2b/Cu}
SYMBOL MDB_sym\\arrow_curr 112 144 R0
WINDOW 0 8 0 Invisible 2
SYMATTR InstName U1
SYMBOL MDB_sym\\arrow_curr 112 544 R0
WINDOW 0 8 0 Invisible 2
SYMATTR InstName U2
SYMBOL res 384 544 R270
WINDOW 0 25 56 VTop 2
WINDOW 3 7 56 VBottom 2
SYMATTR InstName R2
SYMATTR Value 20
SYMBOL ind 464 560 R0
SYMATTR InstName L1
SYMATTR Value 18.4n
SYMBOL MDB_sym\\arrow_curr_rmod 80 128 R270
WINDOW 0 4 0 VTop 2
SYMATTR InstName rZina
SYMATTR Value 1µ
SYMBOL MDB_sym\\arrow_curr_rmod 80 528 R270
WINDOW 0 4 0 VTop 2
SYMATTR InstName rZinb
SYMATTR Value 1µ
SYMBOL MDB_sym\\arrow_curr_rmod 336 128 R270
WINDOW 0 -37 -2 VTop 2
SYMATTR InstName rLa
SYMATTR Value 1µ
SYMBOL MDB_sym\\arrow_curr_rmod 336 528 R270
WINDOW 0 -33 6 VTop 2
SYMATTR InstName rLb
SYMATTR Value 1µ
SYMBOL source-I -240 160 R0
WINDOW 123 29 101 Left 2
WINDOW 39 0 0 Left 2
SYMATTR InstName I1
SYMATTR Value ""
SYMATTR Value2 AC 4.47m
TEXT 112 896 Left 2 !.ac oct 1001 10meg 857.5meg
TEXT 592 72 Left 2 !.param f0 = 433Meg\n.param Cu = 3e8\n.param lambda = Cu/f0\n.param realZ = 80\n.param imagZ = 60\n.param Cz=1/(2*pi*f0*imagZ)
TEXT -224 -104 Left 2 ;* Bei beiden Varianten sind die tslines UA1 + UA3 korrekt angepasst\n* Bei V1 ist zusätzlich auch die Stichleitung richtig dimensioniert.\n  => Der direkte Vergleich der übertragenen Leistungen bestätigt das\n  => V(Z2b)*I(R4)  verglichen mit  V(Z2c)*I(R2)
TEXT 592 296 Left 2 !.param L1a = 0.227*lambda\n.param L2a = 0.362*lambda\n;\n.param L1b = 0.277*lambda\n.param L2b = 0.1*lambda
RECTANGLE Normal 560 400 -32 48 2
RECTANGLE Normal 560 816 -32 464 2
