Version 4
SHEET 1 4376 1276
WIRE 96 -96 64 -96
WIRE 368 -96 96 -96
WIRE 464 -96 368 -96
WIRE 608 -96 464 -96
WIRE 736 -96 608 -96
WIRE 608 -80 608 -96
WIRE 736 -80 736 -96
WIRE 368 -48 368 -96
WIRE 464 -32 464 -96
WIRE 96 -16 96 -96
WIRE -128 16 -160 16
WIRE -160 32 -160 16
WIRE 608 32 608 0
WIRE 640 32 608 32
WIRE 688 32 640 32
WIRE 736 32 736 -16
WIRE 736 32 688 32
WIRE 816 32 736 32
WIRE 912 32 880 32
WIRE 976 32 912 32
WIRE 1008 32 976 32
WIRE 608 48 608 32
WIRE 736 48 736 32
WIRE 272 64 272 -64
WIRE 512 64 512 -144
WIRE 96 96 96 64
WIRE 144 96 96 96
WIRE 208 96 144 96
WIRE 240 96 208 96
WIRE 368 96 368 16
WIRE 432 96 368 96
WIRE 464 96 464 48
WIRE 464 96 432 96
WIRE 480 96 464 96
WIRE 96 112 96 96
WIRE -160 128 -160 112
WIRE 208 160 208 96
WIRE 608 160 608 144
WIRE 640 160 608 160
WIRE 704 160 640 160
WIRE 736 160 736 112
WIRE 736 160 704 160
WIRE 368 176 368 96
WIRE 464 176 464 96
WIRE 608 176 608 160
WIRE 912 176 912 32
WIRE -192 208 -224 208
WIRE -160 208 -192 208
WIRE -80 208 -96 208
WIRE -48 208 -80 208
WIRE 96 208 96 192
WIRE 96 208 32 208
WIRE 112 208 96 208
WIRE 144 208 112 208
WIRE 96 256 96 208
WIRE 320 304 320 288
WIRE 208 320 208 256
WIRE 368 320 368 240
WIRE 464 320 464 256
WIRE 608 320 608 256
WIRE 912 320 912 256
WIRE 96 352 96 336
WIRE -80 384 -96 384
WIRE -32 384 -48 384
WIRE -80 416 -96 416
WIRE -32 416 -48 416
FLAG 208 320 0
FLAG 368 320 0
FLAG 464 320 0
FLAG 608 320 0
FLAG 912 320 0
FLAG 112 208 B1
FLAG 432 96 B2
FLAG 144 96 C1
FLAG 640 32 C2
FLAG 912 32 outac
FLAG 96 352 0
FLAG 640 160 E2
FLAG -80 208 in
FLAG -160 128 0
FLAG -160 16 stim
FLAG -192 208 stim
FLAG -32 384 0
FLAG -32 416 0
FLAG 416 432 0
FLAG 448 400 0
FLAG 480 432 0
DATAFLAG 48 176 "round(1000*$)/1000"
DATAFLAG 208 96 "round(10*$)/10"
DATAFLAG 688 32 "round(10*$)/10"
DATAFLAG 704 160 "round(100*$)/100"
DATAFLAG 688 32 "round(100*$)/100"
DATAFLAG 976 32 "round(100*$)/100"
DATAFLAG 544 160 "round(100*$)/100"
DATAFLAG -16 272 "round(10*V(in,B1)/(I(R8)))/10"
DATAFLAG 48 336 "round(10*V(B1)/(I(R7)))/10"
SYMBOL EIT_Semiconductors\\npn 144 160 R0
WINDOW 3 36 57 Left 2
WINDOW 0 41 31 Left 2
SYMATTR Value BC817-25
SYMATTR InstName Q1
SYMBOL cap -160 224 R270
WINDOW 0 32 32 VTop 2
WINDOW 3 -1 33 VBottom 2
SYMATTR InstName C1
SYMATTR Value {C1}
SYMBOL res 80 96 R0
SYMATTR InstName R1
SYMATTR Value {R1}
SYMBOL res 80 -32 R0
SYMATTR InstName R2
SYMATTR Value {R2}
SYMBOL cap 304 80 M90
WINDOW 0 0 32 VBottom 2
WINDOW 3 32 32 VTop 2
SYMATTR InstName C2
SYMATTR Value {C2}
SYMBOL cap 384 -48 M0
WINDOW 3 20 56 Left 2
SYMATTR Value {C3}
SYMATTR InstName C3
SYMBOL cap 384 176 M0
WINDOW 0 31 18 Left 2
WINDOW 3 22 62 Left 2
SYMATTR InstName C4
SYMATTR Value {C4}
SYMBOL res 480 -48 M0
SYMATTR InstName R3
SYMATTR Value {R3}
SYMBOL res 480 160 M0
SYMATTR InstName R4
SYMATTR Value {R4}
SYMBOL res 592 160 R0
SYMATTR InstName R5
SYMATTR Value {R5}
SYMBOL EIT_Semiconductors\\npn 544 48 R0
SYMATTR InstName Q2
SYMATTR Value BC337-40
SYMBOL ind 592 -96 R0
WINDOW 39 -6 -19 Left 2
SYMATTR SpiceLine Rser=.1
SYMATTR InstName L1
SYMATTR Value {L1}
SYMBOL cap 720 48 R0
SYMATTR InstName C5
SYMATTR Value {C5}
SYMBOL cap 720 -80 R0
SYMATTR InstName C6
SYMATTR Value {C6}
SYMBOL cap 816 48 R270
WINDOW 0 32 32 VTop 2
WINDOW 3 0 32 VBottom 2
SYMATTR InstName C7
SYMATTR Value {C7}
SYMBOL res 896 160 R0
SYMATTR InstName R6
SYMATTR Value {RL}
SYMBOL MDB_sym\\source-Vmarker 64 -96 R0
SYMATTR Value V={Vpl}
SYMATTR InstName U2
SYMBOL res 112 240 M0
WINDOW 3 38 58 Left 2
SYMATTR Value {Rpu}
SYMATTR InstName R7
SYMBOL MDB_sym\\source-V -160 16 R0
WINDOW 123 28 107 Left 2
WINDOW 39 0 0 Left 2
SYMATTR Value2 AC 1
SYMATTR InstName V3
SYMATTR Value 0
SYMBOL res -64 192 M90
WINDOW 3 25 56 VTop 2
WINDOW 0 7 56 VBottom 2
SYMATTR Value {Rpo}
SYMATTR InstName R8
SYMBOL MDB_sym\\source-Imarker -96 384 R0
WINDOW 3 -31 -1 Right 2
SYMATTR Value I={Icx}
SYMATTR InstName U3
SYMBOL MDB_sym\\isoR -64 384 R270
WINDOW 0 4 0 Invisible 2
SYMATTR InstName R9
SYMATTR Value 1m
SYMBOL MDB_sym\\source-Imarker -96 416 R0
WINDOW 3 -31 -1 Right 2
SYMATTR Value I={IcxB}
SYMATTR InstName U4
SYMBOL MDB_sym\\isoR -64 416 R270
WINDOW 0 4 0 Invisible 2
SYMATTR InstName R10
SYMATTR Value 1m
SYMBOL SBORKA\\Switch\\jumpernew 272 96 R0
SYMATTR InstName U1
SYMBOL SBORKA\\Switch\\jumpernewInvCtrl 448 432 R0
SYMATTR InstName U5
SYMBOL SBORKA\\Switch\\jumpernew 512 96 R0
SYMATTR InstName U6
SYMBOL MDB_sym\\source-Vmarker 272 -64 R0
SYMATTR Value V={jLoad1}
SYMATTR InstName U7
SYMBOL MDB_sym\\source-Vmarker 512 -144 R0
SYMATTR Value V={jLoad2}
SYMATTR InstName U8
TEXT 192 -400 Left 2 ;_------------------------------------------------------------------------------------\nBausatz pollin          --           UKW-Sensder\nhttp://www.pollin.de/shop/downloads/D810111B.PDF\nV+ = 9...26V\n_------------------------------------------------------------------------------------\n \nQ1: "cxo C39" equivalent NTE108\nQ2: "SF 127D 9002" HT-Transistor, laut tabelle \nErsatztyp: BC141 ersatzersatz BC337\nSelber:  BDX77
TEXT 96 480 Left 2 !.step param x 0.1 .95 .2
TEXT 96 504 Left 2 !.ac oct 100 10 1000meg
TEXT 96 536 Left 2 ;.tran 0 {Tsim} {Tsim/2}
TEXT 1080 -544 Left 2 !;_------------------------------------------------------------------------------------\n.model npnx2 npn (Is={Ic0s/exp(Vbe0/26m)} Bf={beta})\n.model npnx npn (IS=9.198E-14 NE=1.65 BF=338.8 )\n;_------------------------------------------------------------------------------------\n.param MATLAB_PARAM=1\n+ VT = 26m\n+ Vpl = 15V\n+ x=.1\n+ fres=1.07meg\n+ fmic = 5k\n+ fsw =1k\n+ Rp = 10k\n+ Tsim = 500m\n+ Ic0s = 2mA\n+ Vbe0 = .6V\n+ beta = 339\n+ f0 = 5k\n+ C1=4.7u\n+ C2=4.7u\n+ C3=10p\n+ C4=10p\n+ C5=47p\n+ C6=22p \n+ C7=87p\n+ R1=120k\n+ R2=4k7\n+ R3=3.79k\n+ R4=4k7\n+ R5=1k\n+ RL=10meg\n+ L1v={ 1/(4*pi**2*fres**2*C6)}\n+ alpha={beta/(1+beta)}\n+ Ic0c ={ (Vpl-Vbe0*(1+(R1+R2)/( Rp*(1-x) ))) / \n   + (alpha*R2 + R1/beta)  }\n+ L1={L1v}\n+ Rpu={Rp*(1-x)}\n+ Rpo={Rp*x}
TEXT 96 568 Left 2 !.options plotwinsize=0
TEXT 192 -488 Left 2 !.model npnx2 npn (Is={Ic0s/exp(Vbe0/26m)} Bf={beta})\n.model npnx npn (IS=9.198E-14 NE=1.65 BF=338.8 )
TEXT 88 448 Left 2 !.op
TEXT 816 -152 Left 2 !.ic V(C2)=5V\n.ic I(L1) = {10V/.1}
TEXT 136 448 Left 2 ;.tran 0 10m
TEXT 1080 448 Left 2 !.param Icx = \n + (Vpl - Vbe0/Rpu * (R1+R2+Rpu)) /\n + (R1-Rpu/beta+1/beta * (R1+R2+Rpu))\n \n.param IcxB = \n + (Vpl-Vbe0*( R1/Rpu+R2/Rpu+1 )) / \n + (R1/alpha+R2*(1/alpha-1))
TEXT 808 -256 Left 2 !.param JUMPER=1\n+ jLoad1 = 1\n+ jLoad2 = 0
