Version 4
SHEET 1 1436 1496
WIRE 560 -112 560 -128
WIRE 768 -112 768 -128
WIRE 992 -112 992 -128
WIRE 560 0 560 -32
WIRE 592 0 560 0
WIRE 736 0 672 0
WIRE 832 0 736 0
WIRE 992 0 992 -32
WIRE 992 0 928 0
WIRE 1024 0 992 0
WIRE 1040 0 1024 0
WIRE 992 16 992 0
WIRE 1040 16 1040 0
WIRE 768 32 768 -32
WIRE 832 32 768 32
WIRE 560 48 560 0
WIRE 736 64 736 0
WIRE 768 64 768 32
WIRE -336 96 -336 80
WIRE -128 96 -128 80
WIRE 96 96 96 80
WIRE 928 128 928 32
WIRE 992 128 992 96
WIRE 1040 128 1040 80
WIRE 560 144 560 128
WIRE -336 208 -336 176
WIRE -304 208 -336 208
WIRE -160 208 -224 208
WIRE -64 208 -160 208
WIRE 96 208 96 176
WIRE 96 208 32 208
WIRE 128 208 96 208
WIRE 144 208 128 208
WIRE 736 208 736 160
WIRE 768 208 768 160
WIRE 768 208 736 208
WIRE 96 224 96 208
WIRE 144 224 144 208
WIRE 768 224 768 208
WIRE -128 240 -128 176
WIRE -64 240 -128 240
WIRE -336 256 -336 208
WIRE -160 272 -160 208
WIRE -128 272 -128 240
WIRE 768 320 768 304
WIRE 32 336 32 240
WIRE 96 336 96 304
WIRE 144 336 144 288
WIRE -336 352 -336 336
WIRE -160 416 -160 368
WIRE -128 416 -128 368
WIRE -128 416 -160 416
WIRE -128 432 -128 416
WIRE 352 464 352 448
WIRE 448 464 448 448
WIRE 544 464 544 448
WIRE -128 528 -128 512
WIRE 352 560 352 544
WIRE 448 560 448 544
WIRE 544 560 544 544
WIRE 688 672 688 656
WIRE 688 704 688 672
WIRE 688 816 688 784
WIRE 688 816 608 816
WIRE 768 816 688 816
WIRE -160 848 -176 848
WIRE -128 848 -160 848
WIRE -16 848 -48 848
WIRE 368 848 240 848
WIRE 432 848 368 848
WIRE 608 848 608 816
WIRE 688 848 688 816
WIRE -176 864 -176 848
WIRE 768 864 768 816
WIRE -16 880 -16 848
WIRE 32 880 -16 880
WIRE 80 880 32 880
WIRE 192 880 144 880
WIRE 240 880 240 848
WIRE 240 880 192 880
WIRE -16 896 -16 880
WIRE 32 896 32 880
WIRE 192 896 192 880
WIRE 240 896 240 880
WIRE 80 912 80 880
WIRE 144 912 144 880
WIRE -176 960 -176 944
WIRE 608 976 608 928
WIRE 688 976 688 928
WIRE 688 976 608 976
WIRE 768 976 768 928
WIRE 768 976 688 976
WIRE -16 992 -16 976
WIRE 32 992 32 976
WIRE 32 992 -16 992
WIRE 80 992 80 976
WIRE 80 992 32 992
WIRE 144 992 144 976
WIRE 192 992 192 976
WIRE 192 992 144 992
WIRE 240 992 240 976
WIRE 240 992 192 992
WIRE 688 1040 688 976
WIRE -16 1072 -16 992
WIRE 240 1072 240 992
WIRE 384 1136 224 1136
WIRE 224 1184 224 1136
WIRE 224 1296 224 1264
FLAG -336 352 0
FLAG 32 336 0
FLAG -128 528 0
FLAG 96 80 0
FLAG -128 80 0
FLAG 96 336 0
FLAG 144 336 0
FLAG -336 80 0
FLAG 352 560 0
FLAG 448 560 0
FLAG 352 448 lambda
FLAG 448 448 Td1
FLAG 544 560 0
FLAG 544 448 Td2
FLAG 128 208 Z2
FLAG 560 144 0
FLAG 928 128 0
FLAG 768 320 0
FLAG 992 -128 0
FLAG 768 -128 0
FLAG 992 128 0
FLAG 1040 128 0
FLAG 560 -128 0
FLAG 1024 0 bZ2
FLAG -176 960 0
FLAG 240 1072 0
FLAG -16 1072 0
FLAG 368 848 trf1
FLAG 224 1296 0
FLAG 688 1040 0
FLAG -160 848 stim
FLAG 688 672 stim
SYMBOL source-I -336 256 R0
WINDOW 123 29 101 Left 2
WINDOW 39 0 0 Left 2
SYMATTR Value2 AC 1
SYMATTR InstName I1
SYMATTR Value 1
SYMBOL res -208 192 R90
WINDOW 0 0 56 VBottom 2
WINDOW 3 32 56 VTop 2
SYMATTR InstName R1
SYMATTR Value 50
SYMBOL res 112 320 R180
WINDOW 0 36 76 Left 2
WINDOW 3 36 40 Left 2
SYMATTR InstName R2
SYMATTR Value 120
SYMBOL cap 128 224 R0
SYMATTR InstName C1
SYMATTR Value 5p
SYMBOL source-V 352 448 R0
WINDOW 123 0 0 Left 2
WINDOW 39 0 0 Left 2
SYMATTR InstName V1
SYMATTR Value {lambda}
SYMBOL source-V 448 448 R0
WINDOW 123 0 0 Left 2
WINDOW 39 0 0 Left 2
SYMATTR InstName V2
SYMATTR Value {Td1}
SYMBOL source-V 544 448 R0
WINDOW 123 0 0 Left 2
WINDOW 39 0 0 Left 2
SYMATTR InstName V3
SYMATTR Value {Td2}
SYMBOL MDB_sym\\tlineFixed -16 224 R0
SYMATTR InstName U1
SYMATTR Value Td={Td1} Z0=50
SYMBOL MDB_sym\\tlineFixed -144 320 R90
WINDOW 3 80 -116 VBottom 2
SYMATTR Value Td={Td2} Z0=50
SYMATTR InstName U2
SYMBOL source-I 560 48 R0
WINDOW 123 29 101 Left 2
WINDOW 39 0 0 Left 2
SYMATTR Value2 AC 1
SYMATTR InstName I2
SYMATTR Value 1
SYMBOL res 688 -16 R90
WINDOW 0 0 56 VBottom 2
WINDOW 3 32 56 VTop 2
SYMATTR InstName R3
SYMATTR Value 50
SYMBOL res 1008 112 R180
WINDOW 0 36 76 Left 2
WINDOW 3 36 40 Left 2
SYMATTR InstName R4
SYMATTR Value 120
SYMBOL cap 1024 16 R0
SYMATTR InstName C2
SYMATTR Value 5p
SYMBOL res -352 80 R0
WINDOW 0 36 40 Invisible 2
WINDOW 3 36 76 Invisible 2
SYMATTR InstName R5
SYMATTR Value 100meg
SYMBOL res 544 -128 R0
WINDOW 0 36 40 Invisible 2
WINDOW 3 36 76 Invisible 2
SYMATTR InstName R6
SYMATTR Value 100meg
SYMBOL res 976 -128 R0
WINDOW 0 36 40 Invisible 2
WINDOW 3 36 76 Invisible 2
SYMATTR InstName R8
SYMATTR Value 100meg
SYMBOL res 752 208 R0
WINDOW 0 36 40 Invisible 2
WINDOW 3 36 76 Invisible 2
SYMATTR InstName R9
SYMATTR Value 100meg
SYMBOL tline 752 112 R90
SYMATTR InstName T1
SYMATTR Value Td={Td2} Z0=50
SYMBOL tline 880 16 R180
SYMATTR InstName T2
SYMATTR Value Td={Td1} Z0=50
SYMBOL res 80 80 R0
WINDOW 0 36 40 Invisible 2
WINDOW 3 36 76 Invisible 2
SYMATTR InstName R11
SYMATTR Value 100meg
SYMBOL res -144 416 R0
WINDOW 0 36 40 Invisible 2
WINDOW 3 36 76 Invisible 2
SYMATTR InstName R12
SYMATTR Value 100meg
SYMBOL ind2 -32 992 M180
WINDOW 0 -7 76 Right 2
WINDOW 3 -7 42 Right 2
WINDOW 39 -7 14 Right 2
SYMATTR InstName L1
SYMATTR Value 25µ
SYMATTR SpiceLine Rpar=8k Cpar=1n
SYMATTR Type ind
SYMBOL voltage -176 848 R0
WINDOW 3 -42 286 Left 2
WINDOW 123 -42 314 Left 2
WINDOW 39 0 0 Left 2
SYMATTR Value PULSE(0 1 0 10n 10n 5u 10u)
SYMATTR Value2 AC 1
SYMATTR InstName V5
SYMBOL res -32 832 R90
WINDOW 0 0 56 VBottom 2
WINDOW 3 32 56 VTop 2
SYMATTR InstName R10
SYMATTR Value .10
SYMBOL ind2 256 992 R180
WINDOW 0 -7 76 Right 2
WINDOW 3 -7 42 Right 2
WINDOW 39 -7 14 Right 2
SYMATTR InstName L2
SYMATTR Value 100µ
SYMATTR SpiceLine Rser=25 Cpar=100p
SYMATTR Type ind
SYMBOL Function-V 224 1168 R0
SYMATTR InstName B1
SYMATTR Value V=1/(8k*1n)
SYMBOL ind 592 832 R0
SYMATTR InstName L3
SYMATTR Value 25µ
SYMBOL res 672 832 R0
SYMATTR InstName R7
SYMATTR Value 8k
SYMBOL cap 752 864 R0
SYMATTR InstName C3
SYMATTR Value 1n
SYMBOL res 672 688 R0
SYMATTR InstName R13
SYMATTR Value 1µ
TEXT -480 456 Left 2 !.ac lin 1001 1 1g
TEXT -456 560 Left 2 !.param len1 = 2.56e-2\n.param len2 = 3.68e-2\n.param f = 500Meg\n.param C_cu = 2e8  ; Phasengeschw. in Leistung [m/s]\n.param lambda = {C_cu / f}  ; Wellenlänge in [m]\n.param Td1 = {len1 / lambda}  ; propagation delay \n.param Td2 = {len2 / lambda}  ; propagation delay\n;.param Td1 = 50n\n;.param Td2 = 50n
TEXT -408 -384 Left 2 ;This examples illustrates the fundamental difference between a SPICE\ntransmission line element and a length of coax.  The SPICE transmission\nline element supports a single transmission line mode whereas a cable\nwill have any many modes as it has independent conductors.  A piece of\ncoax has two conductors, a central conductor and an outer shield, giving\nrise to two modes.\n \nTo model both modes of a length of coax, you will need two SPICE\ntransmission line elements.  One for the normal(differential) mode and\nthe other for the common mode.  Below, T1 is the normal mode and T2 is\nthe mode between the shield and the rest of the world.  These modes\nwith have different propagation speeds and impedances.  If both modes\nare modeled, then you can simulate a transmission line inverter.
TEXT 8 848 Bottom 2 ;K1 L1 L2 1
TEXT 376 1176 Left 2 !.param w = 500meg
TEXT -320 1312 Left 2 ;.step log w 1 100meg 100
