Version 4
SHEET 1 1212 680
WIRE -64 -608 -96 -608
WIRE 0 -608 -64 -608
WIRE -96 -576 -96 -608
WIRE -96 -480 -96 -496
WIRE -208 -384 -208 -400
WIRE 160 -384 160 -400
WIRE 400 -384 400 -400
WIRE 496 -384 496 -400
WIRE 592 -384 592 -400
WIRE 400 -288 400 -304
WIRE 496 -288 496 -304
WIRE 592 -288 592 -304
WIRE -208 -272 -208 -304
WIRE -96 -272 -128 -272
WIRE -80 -272 -96 -272
WIRE 64 -272 -48 -272
WIRE 160 -272 160 -304
WIRE 240 -272 160 -272
WIRE 64 -240 48 -240
WIRE 192 -240 160 -240
WIRE 240 -240 240 -272
WIRE -208 -224 -208 -272
WIRE 48 -208 48 -240
WIRE 160 -208 160 -240
WIRE 240 -144 240 -160
WIRE -208 -128 -208 -144
WIRE 160 -112 160 -128
WIRE 192 -48 192 -240
WIRE 240 -48 240 -80
WIRE 240 -48 192 -48
WIRE -144 48 -208 48
WIRE -32 48 -64 48
WIRE -16 48 -32 48
WIRE 240 48 16 48
WIRE 240 64 240 48
WIRE -208 80 -208 48
WIRE -208 176 -208 160
WIRE 240 176 240 144
WIRE 240 272 240 256
FLAG -208 -128 0
FLAG 160 -400 0
FLAG -208 -400 0
FLAG 400 -288 0
FLAG 496 -288 0
FLAG 400 -400 lambda
FLAG 496 -400 Td1
FLAG 592 -288 0
FLAG 592 -400 Td2
FLAG 240 -272 Z2
FLAG -96 -272 Z1
FLAG 48 -208 0
FLAG 240 272 0
FLAG -208 176 0
FLAG -32 48 Z1e
FLAG 160 -112 0
FLAG -96 -480 0
FLAG -64 -608 Z1c
FLAG 240 -48 0
SYMBOL source-I -208 -224 R0
WINDOW 123 29 101 Left 2
WINDOW 39 0 0 Left 2
SYMATTR Value2 AC 1
SYMATTR InstName I1
SYMATTR Value SINE(0 1.41 {f0})
SYMBOL res -224 -256 R270
WINDOW 0 25 56 VTop 2
WINDOW 3 7 56 VBottom 2
SYMATTR InstName R1
SYMATTR Value 50
SYMBOL res 224 -256 R0
SYMATTR InstName R2
SYMATTR Value 200
SYMBOL cap 224 -144 R0
SYMATTR InstName C1
SYMATTR Value 8p
SYMBOL res -224 -400 R0
WINDOW 0 36 40 Invisible 2
WINDOW 3 36 76 Invisible 2
SYMATTR InstName R3
SYMATTR Value 100meg
SYMBOL res 144 -400 R0
WINDOW 0 36 40 Invisible 2
WINDOW 3 36 76 Invisible 2
SYMATTR InstName R4
SYMATTR Value 100meg
SYMBOL tline 112 -256 R180
SYMATTR InstName T2
SYMATTR Value Td={Td1} Z0=50
SYMBOL source-V 400 -400 R0
WINDOW 123 0 0 Left 2
WINDOW 39 0 0 Left 2
SYMATTR InstName V1
SYMATTR Value {lambda}
SYMBOL source-V 496 -400 R0
WINDOW 123 0 0 Left 2
WINDOW 39 0 0 Left 2
SYMATTR InstName V2
SYMATTR Value {Td1}
SYMBOL source-V 592 -400 R0
WINDOW 123 0 0 Left 2
WINDOW 39 0 0 Left 2
SYMATTR InstName V3
SYMATTR Value {len1}
SYMBOL res 224 48 R0
SYMATTR InstName R5
SYMATTR Value 27.5
SYMBOL ind 224 160 R0
SYMATTR InstName L1
SYMATTR Value 5.25n
SYMBOL source-I -208 80 R0
WINDOW 123 29 101 Left 2
WINDOW 39 0 0 Left 2
SYMATTR Value2 AC 1
SYMATTR InstName I2
SYMATTR Value SINE(0 1.41 1g)
SYMBOL res -160 64 R270
WINDOW 0 25 56 VTop 2
WINDOW 3 7 56 VBottom 2
SYMATTR InstName R6
SYMATTR Value 50
SYMBOL MDB_sym\\arrow_curr 0 48 R270
WINDOW 0 4 25 VTop 2
SYMATTR InstName U2
SYMBOL res 176 -112 R180
WINDOW 0 36 76 Invisible 2
WINDOW 3 36 40 Invisible 2
SYMATTR InstName R7
SYMATTR Value 100meg
SYMBOL bv -96 -592 R0
SYMATTR InstName B1
SYMATTR Value V=V(Z1)/I(R8)
SYMBOL MDB_sym\\arrow_curr_rmod -64 -272 R270
WINDOW 0 4 0 VTop 2
SYMATTR InstName R8
SYMATTR Value 1µ
TEXT 392 -224 Left 2 !.param len1 = 0.07\n.param len2 = 0.07\n.param f = 1g\n.param C_cu = 2e8  ; Phasengeschw. in eps_r=2.5 Leitung [m/s]\n.param lambda = {C_cu / f}  ; Wellenlänge in [m]\n.param Td1 = {len1 / lambda}  ; propagation delay \n.param Td2 = {len2 / lambda}  ; propagation delay\n;.param Td1 = 50n\n;.param Td2 = 50n
TEXT 712 -232 Left 2 !.tran 0 {10000/1g} {9500/1g}
TEXT 208 -624 Left 2 !.param f0 = 10g\n;.step param f0 900meg 1.1g 50meg
