Version 4
SHEET 1 5344 1640
WIRE 48 128 48 112
WIRE -48 256 -80 256
WIRE 48 256 32 256
WIRE 64 256 48 256
WIRE 688 400 688 384
WIRE -128 416 -144 416
WIRE -112 416 -128 416
WIRE 16 416 0 416
WIRE 32 416 16 416
WIRE 176 416 160 416
WIRE 192 416 176 416
WIRE 272 416 240 416
WIRE 336 416 304 416
WIRE 400 416 336 416
WIRE -128 448 -128 416
WIRE 336 448 336 416
WIRE 400 464 400 416
WIRE 608 512 576 512
WIRE 688 512 688 480
WIRE -128 544 -128 496
WIRE 336 544 336 528
WIRE 368 544 336 544
WIRE 400 544 400 528
WIRE 400 544 368 544
WIRE 368 576 368 544
WIRE -128 640 -128 624
WIRE -144 752 -176 752
WIRE -32 752 -64 752
WIRE 16 752 0 752
WIRE 32 752 16 752
WIRE 176 752 160 752
WIRE 192 752 176 752
WIRE 256 752 240 752
WIRE 304 752 288 752
WIRE 672 752 656 752
WIRE 704 752 672 752
WIRE 304 768 304 752
WIRE 1104 768 1056 768
WIRE 304 928 304 912
FLAG 672 752 tdc
FLAG 16 416 Z1
FLAG 176 416 Z2
FLAG 48 448 0
FLAG 576 512 0
FLAG 16 752 Z13
FLAG 176 752 Z3
FLAG 48 784 0
FLAG -176 752 0
FLAG 144 784 0
FLAG 144 448 0
FLAG 368 576 0
FLAG 304 928 0
FLAG -128 640 0
FLAG 688 384 0
FLAG -80 256 0
FLAG 48 112 0
FLAG 1104 768 td
SYMBOL source-Vmarker 656 752 R0
SYMATTR Value V={L1/Cu}
SYMATTR InstName U1
SYMBOL res 320 432 R0
SYMATTR InstName R2
SYMATTR Value 50
SYMBOL cap 384 464 R0
SYMATTR InstName C2
SYMATTR Value 50p
SYMBOL MDB_sym\\tlineFixed 208 432 R0
WINDOW 0 -115 -39 Bottom 2
WINDOW 3 -115 41 Top 2
WINDOW 123 -115 67 Top 2
SYMATTR InstName U2
SYMATTR Value Td={dL1/Cu}
SYMBOL MDB_sym\\arrow_curr_rmod -16 416 R270
WINDOW 0 -43 -1 VTop 2
SYMATTR InstName rZ1
SYMATTR Value 1µ
SYMBOL source-I 688 512 R90
WINDOW 0 -27 40 VBottom 2
WINDOW 3 27 40 VTop 2
WINDOW 123 55 40 VTop 2
WINDOW 39 0 0 Left 2
SYMATTR InstName I1
SYMATTR Value SINE(0 1 {f0})
SYMATTR Value2 AC 1
SYMBOL MDB_sym\\arrow_curr 288 416 R270
WINDOW 0 4 0 VTop 2
SYMATTR InstName RIz2
SYMBOL MDB_sym\\arrow_curr 272 752 R270
WINDOW 0 4 0 VTop 2
SYMATTR InstName RIz3
SYMBOL MDB_sym\\jumper 224 352 R0
SYMATTR InstName X2
SYMBOL MDB_sym\\jumper 224 688 R0
SYMATTR InstName X3
SYMBOL MDB_sym\\tlineFixed 208 768 R0
WINDOW 0 -115 -39 Bottom 2
WINDOW 3 -115 41 Top 2
WINDOW 123 -115 67 Top 2
SYMATTR InstName U3
SYMATTR Value Td={L1/Cu}
SYMBOL MDB_sym\\arrow_curr_rmod -16 752 R270
WINDOW 0 -43 -1 VTop 2
SYMATTR InstName rZ4
SYMATTR Value 1µ
SYMBOL source-I -64 752 R90
WINDOW 0 -27 40 VBottom 2
WINDOW 3 27 40 VTop 2
WINDOW 123 55 40 VTop 2
WINDOW 39 0 0 Left 2
SYMATTR InstName I2
SYMATTR Value 0
SYMATTR Value2 AC 1
SYMBOL res 288 752 R0
SYMATTR InstName R1
SYMATTR Value 200
SYMBOL cap 288 848 R0
WINDOW 0 34 19 Left 2
SYMATTR InstName C1
SYMATTR Value 8p
SYMBOL MDB_sym\\source-V -128 528 M0
WINDOW 123 28 107 Left 2
WINDOW 39 0 0 Left 2
SYMATTR InstName V1
SYMATTR Value SINE(0 1 {f0})
SYMATTR Value2 AC 1
SYMBOL res 672 384 R0
SYMATTR InstName R3
SYMATTR Value 1
SYMBOL res -128 432 R270
WINDOW 0 25 56 VTop 2
WINDOW 3 7 56 VBottom 2
SYMATTR InstName R4
SYMATTR Value 50
SYMBOL source-I 32 256 R90
WINDOW 0 -27 40 VBottom 2
WINDOW 3 27 40 VTop 2
WINDOW 123 55 40 VTop 2
WINDOW 39 0 0 Left 2
SYMATTR InstName I3
SYMATTR Value 0
SYMATTR Value2 AC 1
SYMBOL MDB_sym\\jumper -16 224 R270
SYMATTR InstName X1
SYMBOL res 32 112 R0
SYMATTR InstName R5
SYMATTR Value 1
SYMBOL MDB_sym\\jumper -192 464 R270
SYMATTR InstName X4
SYMBOL MDB_sym\\source-Vmarker 1056 768 R0
SYMATTR Value V={dL1/Cu}
SYMATTR InstName U5
TEXT 536 792 Left 2 ;.ac dec 100 1 1e08
TEXT 536 976 Left 2 !.param f0 = 100meg\n.param fm = f0\n.param Cu = {0.85*3e8}\n.param lambda=Cu/f0\n; L/lambda = 0.205\n; L1 = 0.205*3e8/f0 = 1.757m\n;.param L1 = 1.757\n \n;.param L1 = .045*lambda\n.param L1 = .324*lambda
TEXT -152 1008 Left 1 ;For the ideal case, Z0 is the characteristic impedance. The transmission lineís length can be\nspecified either by TD, a delay in seconds, or by F and NL, a frequency and a relative\nwavelength at F. NL has a default value of 0.25 (F is the quarter-wave frequency). Although\nTD and F are both shown as optional, one of the two must be specified\n \nSIMULATION NOTES\nTransmission lines are defined by two parameters: characteristic impedance \nZ0 and delay time TD. What is the delay time? This tells you how long it takes \na step voltage to travel from one end of the cable to the other. The time delay \nis easily determined by the cable speed and cable length. In the circuit above, \nthe 5 meter cable is specified as having a speed of 85% compared to the speed \nof light. The time delay is calculated as\n \nTime = Length / Speed = 5 m / (0.85 * 300e6 m/s) = 19.6 ns.\n \nThe SPICE transmission line looks like\n T1 2 0  3 0  Z0=75 TD=19.6NS\n \nwhere nodes 2 0 and 3 0 are the connections at either end of this bidirectional device.
TEXT 536 840 Left 2 ;weil (...) soll Z1/Z0=0.66+j*0.5\n--> Z1=33+j*25\n‹ber smith chart wurde\nL/lambda=0.205 bestimmt
TEXT -136 904 Left 2 ;Td={L1/Cu}
TEXT 8 592 Left 2 ;F=100meg NL=.25
TEXT -40 536 Left 2 !.step param dL1 1e-6 .1 .0025
TEXT 136 120 Left 2 ;.MEAS AC arg1 avg arg(V(Z2))\n.MEAS AC param Td \n.MEAS AC mag1 avg re(V(Z2)) AT={fm}\n.MEAS AC re1 find real(V(Z2))\n.MEAS AC im1 imag(V(Z2))\n.MEAS AC BW trig mag(V(out))=tmp/sqrt(2) rise=1\n+ targ mag(V(out))=tmp/sqrt(2) fall=last
TEXT 926 672 Left 2 !.tran {10/f0}
TEXT 640 104 Left 2 ;.meas Aavg avg V(a)\n.meas Bavg avg V(b)\n.meas Are avg (V(a)-Aavg)*cos(360*time*Freq)\n.meas Aim avg -(V(a)-Aavg)*sin(360*time*Freq)\n.meas Bre avg (V(b)-Bavg)*cos(360*time*Freq)\n.meas Bim avg -(V(b)-Bavg)*sin(360*time*Freq)\n.meas GainMag param 20*log10(hypot(Are,Aim)/hypot(Bre,Bim))\n.meas GainPhi param mod(atan2(Aim,Are)-atan2(Bim,Bre)+180,360)-180
TEXT 872 480 Left 2 !.meas Aavg avg V(z1)\n.meas Bavg avg V(z2)\n.meas Are avg (V(z1)-Aavg)*cos(360*time*F0)\n.meas Aim avg -(V(z1)-Aavg)*sin(360*time*F0)
