Version 4
SHEET 1 5344 1532
WIRE 704 352 688 352
WIRE 736 352 704 352
WIRE -16 528 -32 528
WIRE 96 528 64 528
WIRE 128 528 96 528
WIRE 288 528 256 528
WIRE 320 528 288 528
WIRE 384 528 320 528
WIRE -32 544 -32 528
WIRE 320 544 320 528
WIRE 384 544 384 528
WIRE -32 640 -32 624
WIRE 320 640 320 624
WIRE 384 640 384 608
FLAG -32 640 0
FLAG 704 352 tdc
FLAG 96 528 Vin2
FLAG 288 528 Vout2
FLAG -32 528 U
FLAG 320 640 0
FLAG 384 640 0
FLAG 240 560 0
FLAG 144 560 0
SYMBOL source-V -32 528 M0
WINDOW 3 -77 155 Left 2
WINDOW 123 -82 114 Left 2
WINDOW 39 0 0 Left 2
SYMATTR Value SINE(0 1 {f0})
SYMATTR Value2 AC 1
SYMATTR InstName V1
SYMBOL source-Vmarker 688 352 R0
SYMATTR Value V={L1/Cu}
SYMATTR InstName U1
SYMBOL res 304 528 R0
SYMATTR InstName R4
SYMATTR Value 75
SYMBOL cap 368 544 R0
SYMATTR InstName C2
SYMATTR Value 30p
SYMBOL res -32 544 R270
WINDOW 0 25 56 VTop 2
WINDOW 3 7 56 VBottom 2
SYMATTR InstName Rg2
SYMATTR Value 50
SYMBOL MDB_sym\\tlineFixed 304 544 R0
WINDOW 0 -115 -39 Bottom 2
WINDOW 3 -115 41 Top 2
SYMATTR InstName U2
SYMATTR Value Td={L1/Cu}
TEXT 544 424 Left 2 !.ac lin 1001 1 70meg
TEXT -184 376 Left 2 !.param f0 = 50meg\n.param Cu = 2e8\n.param L1 = 0.614 ;meter
TEXT 552 512 Left 2 ;Reaktanzanteil:\nV(vout2)/I(C2) \nMag: 31.9ohm \nPhase: -90°\n==> ZL=R-j32ohm
TEXT -168 1048 Left 2 ;For the ideal case, Z0 is the characteristic impedance. The transmission line’s length can be\nspecified either by TD, a delay in seconds, or by F and NL, a frequency and a relative\nwavelength at F. NL has a default value of 0.25 (F is the quarter-wave frequency). Although\nTD and F are both shown as optional, one of the two must be specified\n \nSIMULATION NOTES\nTransmission lines are defined by two parameters: characteristic impedance \nZ0 and delay time TD. What is the delay time? This tells you how long it takes \na step voltage to travel from one end of the cable to the other. The time delay \nis easily determined by the cable speed and cable length. In the circuit above, \nthe 5 meter cable is specified as having a speed of 85% compared to the speed \nof light. The time delay is calculated as\n \nTime = Length / Speed = 5 m / (0.85 * 300e6 m/s) = 19.6 ns.\n \nThe SPICE transmission line looks like\n T1 2 0  3 0  Z0=75 TD=19.6NS\n \nwhere nodes 2 0 and 3 0 are the connections at either end of this bidirectional device.
TEXT -184 104 Left 2 ;Beträgt die Leitungslänge gerade eine halbe Wellenlänge oder Vielfache davon, so transformiert sich mit \nbeta*l = 2pi/lambda*lambda/2 = pi die Abschlussimpedanz an den Eingang
TEXT -136 944 Left 2 ;lam = C_cu / f0
RECTANGLE Normal 880 160 -208 80 2
