Version 4
SHEET 1 1144 1108
WIRE 64 -128 -64 -128
WIRE 144 -128 64 -128
WIRE 256 -128 144 -128
WIRE -64 -112 -64 -128
WIRE 64 -80 64 -128
WIRE 256 -80 256 -128
WIRE -544 -64 -672 -64
WIRE -464 -64 -544 -64
WIRE -432 -64 -464 -64
WIRE -368 -64 -432 -64
WIRE -288 -64 -368 -64
WIRE -672 -48 -672 -64
WIRE -464 -32 -464 -64
WIRE -368 -32 -368 -64
WIRE -288 -32 -288 -64
WIRE -544 -16 -544 -64
WIRE -64 -16 -64 -32
WIRE 64 16 64 0
WIRE 256 16 256 0
WIRE -672 48 -672 32
WIRE 64 48 64 16
WIRE 256 48 256 16
WIRE -544 80 -544 48
WIRE -464 80 -464 48
WIRE -464 80 -544 80
WIRE -416 80 -464 80
WIRE -368 80 -368 48
WIRE -368 80 -416 80
WIRE -288 80 -288 48
WIRE -288 80 -368 80
WIRE -416 128 -416 80
WIRE 64 128 64 112
WIRE 256 160 256 128
WIRE 560 160 528 160
WIRE 592 160 560 160
WIRE 768 160 736 160
WIRE 800 160 768 160
WIRE 528 192 528 160
WIRE 736 192 736 160
WIRE 592 208 592 160
WIRE -352 304 -480 304
WIRE -160 304 -352 304
WIRE 32 304 -160 304
WIRE 224 304 32 304
WIRE 528 304 528 272
WIRE 736 304 736 272
WIRE -160 352 -160 304
WIRE 32 352 32 304
WIRE 224 352 224 304
WIRE -352 368 -352 304
WIRE 560 368 528 368
WIRE 592 368 560 368
WIRE 768 368 736 368
WIRE -480 384 -480 304
WIRE 528 400 528 368
WIRE 736 400 736 368
WIRE -352 464 -352 432
WIRE -160 464 -160 432
WIRE 32 464 32 432
WIRE 224 464 224 432
WIRE -480 480 -480 464
WIRE 528 512 528 480
WIRE 736 512 736 480
WIRE -352 560 -352 512
WIRE -160 560 -160 512
WIRE 32 560 32 512
WIRE 224 560 224 512
WIRE -272 608 -272 528
WIRE -80 608 -80 528
WIRE 112 608 112 528
WIRE 304 608 304 528
WIRE -272 720 -272 688
WIRE -80 720 -80 688
WIRE 112 720 112 688
WIRE 304 720 304 688
FLAG -64 -16 0
FLAG 64 128 0
FLAG 256 160 0
FLAG 64 16 C1
FLAG 256 16 L1
FLAG 144 -128 in
FLAG -480 480 0
FLAG 528 512 0
FLAG 560 368 Qg
FLAG 528 304 0
FLAG 560 160 Qc
FLAG 736 304 0
FLAG 768 160 QL
FLAG 736 512 0
FLAG 768 368 Qg2
FLAG -352 560 0
FLAG -272 448 0
FLAG -160 560 0
FLAG -80 448 0
FLAG 32 560 0
FLAG 112 448 0
FLAG 224 560 0
FLAG 304 448 0
FLAG -272 720 0
FLAG -80 720 0
FLAG 112 720 0
FLAG 304 720 0
FLAG 592 288 0
FLAG -416 128 0
FLAG -672 48 0
FLAG -432 -64 in2
SYMBOL res 48 -96 R0
SYMATTR InstName R1
SYMATTR Value .8
SYMBOL ind 240 32 R0
SYMATTR InstName L1
SYMATTR Value 253n
SYMBOL cap 48 48 R0
SYMATTR InstName C1
SYMATTR Value 10p
SYMBOL source-I -64 -112 R0
WINDOW 123 29 101 Left 2
WINDOW 39 0 0 Left 2
WINDOW 3 -105 137 Left 2
SYMATTR Value2 AC 1
SYMATTR InstName I1
SYMATTR Value SINE(0 1 100meg)
SYMBOL res 240 -96 R0
SYMATTR InstName R2
SYMATTR Value 1.6
SYMBOL res -176 336 R0
SYMATTR InstName R3
SYMATTR Value 31.6k
SYMBOL ind 208 336 R0
SYMATTR InstName L2
SYMATTR Value 253n
SYMBOL cap -368 368 R0
SYMATTR InstName C2
SYMATTR Value 10p
SYMBOL res 16 336 R0
SYMATTR InstName R4
SYMATTR Value 15.8k
SYMBOL source-I -480 384 R0
WINDOW 123 29 101 Left 2
WINDOW 39 0 0 Left 2
WINDOW 3 -130 150 Left 2
SYMATTR Value2 AC 1
SYMATTR InstName I2
SYMATTR Value SINE(0 1 100meg)
SYMBOL bv 528 384 R0
WINDOW 3 -102 170 Left 2
SYMATTR InstName B1
SYMATTR Value V=(I(R3)+I(R4))/(I(C2)+I(L2))
SYMBOL bv 736 176 R0
SYMATTR InstName B3
SYMATTR Value V=I(L2)/I(R4)
SYMBOL bv 736 384 R0
SYMATTR InstName B4
SYMATTR Value V=V(Qc)*V(QL)/(V(Qc)+V(QL))
SYMBOL crtl-I-I_INV 304 432 R0
SYMATTR InstName U1
SYMBOL crtl-I-I_INV 112 432 R0
SYMATTR InstName U2
SYMBOL crtl-I-I_INV -80 432 R0
SYMATTR InstName U3
SYMBOL crtl-I-I_INV -272 432 R0
SYMATTR InstName U4
SYMBOL res 288 592 R0
SYMATTR InstName R8
SYMATTR Value {Rr}
SYMBOL res 96 592 R0
SYMATTR InstName R5
SYMATTR Value {Rr}
SYMBOL res -96 592 R0
SYMATTR InstName R6
SYMATTR Value {Rr}
SYMBOL res -288 592 R0
SYMATTR InstName R7
SYMATTR Value {Rr}
SYMBOL bi 528 272 R180
WINDOW 0 24 80 Left 2
WINDOW 3 24 0 Left 2
SYMATTR InstName B5
SYMATTR Value I=I(C2)/I(R3)
SYMBOL res 576 192 R0
SYMATTR InstName R9
SYMATTR Value {Rr}
SYMBOL res -480 -48 R0
SYMATTR InstName R10
SYMATTR Value 31.6k
SYMBOL ind -304 -48 R0
SYMATTR InstName L3
SYMATTR Value 253n
SYMBOL cap -560 -16 R0
SYMATTR InstName C3
SYMATTR Value 10p
SYMBOL res -384 -48 R0
SYMATTR InstName R11
SYMATTR Value 15.8k
SYMBOL source-I -672 -48 R0
WINDOW 123 29 101 Left 2
WINDOW 39 0 0 Left 2
WINDOW 3 -81 150 Left 2
SYMATTR Value2 AC 1
SYMATTR InstName I3
SYMATTR Value SINE(0 1 100meg)
TEXT -252 216 Left 2 !.ac oct 10000 100k 1g
TEXT 224 208 Left 2 ;Q=100
TEXT 440 -32 Left 2 !.option plotwinsize = 0
TEXT 528 832 Left 2 !.param Rr=1
RECTANGLE Normal 320 224 192 -160 2
