Version 4
SHEET 1 2940 1320
WIRE 1616 -80 1584 -80
WIRE 2032 -80 1616 -80
WIRE 1632 -48 1616 -48
WIRE 2000 -48 1632 -48
WIRE 1584 32 1584 -80
WIRE 1696 32 1584 32
WIRE 1776 48 1744 48
WIRE 1696 64 1648 64
WIRE 1584 144 1584 32
WIRE 1696 144 1584 144
WIRE 1776 144 1776 48
WIRE 1792 144 1776 144
WIRE 1792 160 1744 160
WIRE 1872 160 1840 160
WIRE 1904 160 1872 160
WIRE 1968 160 1952 160
WIRE 2032 160 2032 -80
WIRE 2032 160 1968 160
WIRE 2064 160 2032 160
WIRE 2080 160 2064 160
WIRE 1616 176 1616 -48
WIRE 1664 176 1616 176
WIRE 1792 176 1776 176
WIRE 1952 176 1952 160
WIRE 1904 224 1904 160
WIRE 1920 224 1904 224
WIRE 1584 256 1584 144
WIRE 1664 256 1584 256
WIRE 1616 272 1616 176
WIRE 1696 272 1616 272
WIRE 1776 272 1776 176
WIRE 1776 272 1744 272
WIRE 1072 288 1056 288
WIRE 1104 288 1072 288
WIRE 1264 288 1216 288
WIRE 1280 288 1264 288
WIRE 1696 288 1584 288
WIRE 1072 320 1056 320
WIRE 1104 320 1072 320
WIRE 1264 320 1216 320
WIRE 1280 320 1264 320
WIRE 624 352 576 352
WIRE 656 352 624 352
WIRE 784 352 736 352
WIRE 816 352 784 352
WIRE 1072 352 1056 352
WIRE 1104 352 1072 352
WIRE 1264 352 1216 352
WIRE 1280 352 1264 352
WIRE 960 368 880 368
WIRE 1504 368 1488 368
WIRE 1584 368 1584 288
WIRE 1584 368 1504 368
WIRE 1600 368 1584 368
WIRE 1648 368 1648 64
WIRE 1648 368 1632 368
WIRE 1664 368 1648 368
WIRE 1872 368 1664 368
WIRE 1904 368 1872 368
WIRE 1968 368 1952 368
WIRE 2000 368 2000 -48
WIRE 2000 368 1968 368
WIRE 576 384 576 352
WIRE 736 384 736 352
WIRE 880 384 880 368
WIRE 960 384 960 368
WIRE 1072 384 1056 384
WIRE 1104 384 1072 384
WIRE 1264 384 1216 384
WIRE 1280 384 1264 384
WIRE 1952 384 1952 368
WIRE 1072 416 1056 416
WIRE 1104 416 1072 416
WIRE 1264 416 1216 416
WIRE 1280 416 1264 416
WIRE 1904 432 1904 368
WIRE 1920 432 1904 432
WIRE 1072 448 1056 448
WIRE 1104 448 1072 448
WIRE 1264 448 1216 448
WIRE 1280 448 1264 448
WIRE 1488 448 1488 368
WIRE 576 480 576 464
WIRE 736 480 736 464
WIRE 880 480 880 464
WIRE 960 480 960 464
WIRE 1264 496 1216 496
WIRE 1280 496 1264 496
WIRE 1264 528 1216 528
WIRE 1280 528 1264 528
WIRE 1488 544 1488 528
WIRE 1120 608 1088 608
WIRE 1232 608 1200 608
FLAG 1872 160 y1
FLAG 1632 -48 y0~
FLAG 1616 -80 y1~
FLAG 1504 368 x
FLAG 1664 368 _x
FLAG 1872 368 y0
FLAG 2064 160 z
FLAG 1488 544 0
FLAG 1072 288 z
FLAG 1264 288 ...z...
FLAG 1072 448 x
FLAG 1264 448 ...x...
FLAG 1072 352 y0
FLAG 1264 352 ...Y0...
FLAG 1072 320 y1
FLAG 1264 320 ...Y1...
FLAG 1968 160 y1~
FLAG 1968 368 y0~
FLAG 1952 256 0
FLAG 1952 464 0
FLAG 736 480 0
FLAG 576 480 0
FLAG 624 352 T1_ns
FLAG 784 352 T0_ns
FLAG 880 480 0
FLAG 960 480 0
FLAG 1072 416 y0~
FLAG 1264 416 ...Y0~...
FLAG 1072 384 y1~
FLAG 1264 384 ...Y1~...
FLAG 1264 496 limitUp
FLAG 1264 528 limitLow
FLAG 1232 608 ...x....
FLAG 1088 608 0
SYMBOL MDB_sym\\AND2s 1712 48 R0
WINDOW 3 -36 38 Left 2
SYMATTR Value TD=0n
SYMATTR InstName U1
SYMBOL MDB_sym\\AND3s 1712 272 R0
WINDOW 3 -33 42 Left 2
SYMATTR Value TD=0n
SYMATTR InstName U3
SYMBOL MDB_sym\\OR3s 1808 160 R0
WINDOW 3 -35 42 Left 2
SYMATTR Value TD=0n
SYMATTR InstName U4
SYMBOL MDB_sym\\AND2s 1712 160 R0
WINDOW 3 -35 42 Left 2
SYMATTR Value TD=0n
SYMATTR InstName U2
SYMBOL MDB_sym\\inv4 1648 112 R0
SYMATTR InstName U5
SYMBOL MDB_sym\\inv4 1648 192 R0
SYMATTR InstName U6
SYMBOL MDB_sym\\inv4 1584 304 R0
SYMATTR InstName U7
SYMBOL source-V 1488 432 R0
WINDOW 123 0 0 Left 2
WINDOW 39 0 0 Left 2
WINDOW 0 34 78 Left 2
WINDOW 3 491 160 Right 2
SYMATTR InstName V1
SYMATTR Value PULSE(0 5 {init_delay} 10p 10p {max(T0,T1)} {2*max(T0,T1)})
SYMBOL EIT_Digital\\probe_dig 1104 464 M180
SYMATTR Value T=0
SYMATTR InstName U9
SYMBOL EIT_Digital\\probe_dig 1104 432 M180
SYMATTR Value T=1
SYMATTR InstName U10
SYMBOL bv 1952 368 R0
WINDOW 0 -54 87 Left 2
WINDOW 3 -658 -200 Right 2
SYMATTR InstName B0
SYMATTR Value V=if( T0+.5, delay(V(y0) , T0+1s*(inv(T0+.5))),  V(y0))     ;  = B0
SYMBOL source-V 576 368 R0
WINDOW 123 0 0 Left 2
WINDOW 39 0 0 Left 2
SYMATTR InstName V2
SYMATTR Value {T1*1e9}
SYMBOL source-V 736 368 R0
WINDOW 123 0 0 Left 2
WINDOW 39 0 0 Left 2
SYMATTR InstName V3
SYMATTR Value {T0*1e9}
SYMBOL bv 1952 160 R0
WINDOW 0 -54 87 Left 2
WINDOW 3 -666 -20 Right 2
SYMATTR InstName B1
SYMATTR Value V=if( T1+.5, delay(V(y1) , T1+1s*(inv(T1+.5))),  V(y1))     ; = B1
SYMBOL source-V 880 368 R0
WINDOW 123 0 0 Left 2
WINDOW 39 0 0 Left 2
WINDOW 3 -169 161 Left 2
SYMATTR Value SINE(0 1 {1/(Tcom/50)})
SYMATTR InstName V4
SYMBOL res 944 368 R0
SYMATTR InstName R1
SYMATTR Value 1
SYMBOL EIT_Digital\\probe_dig 1104 304 R0
SYMATTR Value T=4
SYMATTR InstName U8
SYMBOL EIT_Digital\\probe_dig 1104 272 R0
SYMATTR Value T=5
SYMATTR InstName U11
SYMBOL EIT_Digital\\probe_dig 1104 368 R0
SYMATTR Value T=2
SYMATTR InstName U12
SYMBOL EIT_Digital\\probe_dig 1104 336 R0
SYMATTR Value T=3
SYMATTR InstName U15
SYMBOL bv 1216 608 R90
WINDOW 0 -27 56 VBottom 2
WINDOW 3 37 116 VTop 2
SYMATTR InstName B2
SYMATTR Value V= 6*inv(TIME+.5-limDel) + (1-inv(TIME+.5-limDel))* V(...x...)
SYMBOL EIT_Digital\\probe_dig 1104 512 M180
SYMATTR Value T=0
SYMATTR InstName U13
SYMBOL EIT_Digital\\level-high 1104 496 R0
SYMATTR InstName U14
SYMBOL EIT_Digital\\probe_dig 1104 544 M180
SYMATTR Value T=0
SYMATTR InstName U16
SYMBOL EIT_Digital\\level-low 1104 528 R0
SYMATTR InstName U17
TEXT 1536 408 Left 2 ;ideales Verknüpfungsnetz
TEXT 1528 0 Left 2 ;VN
TEXT 816 760 Left 2 !.tran {600n+init_delay}
TEXT 1888 48 Left 2 !.ic V(y1)=5\n.ic V(y0)=5
TEXT 816 696 Left 2 !.MEAS TRAN T1_ns FIND V(T1calc) AT=1u\n.MEAS TRAN T0_ns FIND V(T0calc) AT=1u
TEXT 616 -424 Left 2 ;Erst prüfen ob T0, T1 auf 0ns gesetzt ist.\n(T0 > 0ns)  ->  y0~(t) = y0(t-T0)\n(T0 = 0ns)  ->  y0~(t) = y0(t)\n \nDefinition von if(x, y, z) und inv(x)\nIf x > .5, then y else z\n0. if x > .5, else 1. \n \nAber Vorsicht, beide alternativen müssen immer gültige \nArgumente besitzen auch wenn y oder z niemals vorkommt.\nDeswegen ist V=if( {T0+.5},  delay( V(y0), T0 ),  V(y0) )\nnur für T0>0 gültig. Obwohl anderenfalls V=V(y0) selektiert wird,\nmeckert Spice dass das delay-Argument von delay(...,T0) nicht \n<=0 sein darf.\n \nFIX: \nT0+1s*(inv(T0+.5)) als Verzögerung benutzen, für T0 <= 0 wird dieser\nParameter zu delay(..., 1s) und V=V(y0)\nFür T0 > 0 fällt der hintere Sumand weg und es gilt V=delay(V(y0), T0)
TEXT 1528 744 Left 2 ;.step param SEL list 1 2 3
TEXT 1768 -640 Left 2 ;T1=5*Tcom\nT0=Tcom\n \nT1=Tcom\nT0=5*Tcom
TEXT 600 -616 Left 2 ;Digitale Systeme | Skript S.70...75   Prof. Schäfer\nAsynchrone Schaltnetze mit Rückkopplung\n10-02-2015   MDB
TEXT 1496 -640 Left 2 ;sel=0  -->  (T1 < T0)\n \n \nsel=1  -->  (T1 > T0)
TEXT 1472 -456 Left 2 !.param Tcom = 100ns   ;  Common Delay\n;.param T1 = {Tcom*(1+sel*4)}   ; Delay for y1\n;.param T0 = {Tcom*(1+(1-sel)*4)}   ; Delay for y0\n.param SEL=4\n;.param T1={Tcom}\n;.param T0=0\n \n; initial delay for transition x: 0 -> 1\n.param init_delay=200n   \n.param vpwr$_digital = 5V\n.options plotwinsize=0
TEXT 1480 656 Left 2 !.param T1 = table(SEL, 1,100n,   2,500n,   3,100n,   4,100n)\n.param T0 = table(SEL, 1,500n,   2,100n,   3,100n,   4,0)
TEXT 816 632 Left 2 !.param limDel = 100p
LINE Normal 1736 -504 1736 -664
LINE Normal 1928 -584 1472 -584
RECTANGLE Normal 1856 432 1520 -16 2
RECTANGLE Normal 1424 208 576 -464 2
RECTANGLE Normal 1408 192 560 -480
RECTANGLE Normal 1168 -512 576 -640 2
RECTANGLE Normal 1152 -528 560 -656
RECTANGLE Normal 1928 -504 1472 -664
