Version 4
SHEET 1 940 692
WIRE 192 -576 160 -576
WIRE 224 -576 192 -576
WIRE 0 -544 -16 -544
WIRE 48 -544 0 -544
WIRE 224 -544 48 -544
WIRE 560 -544 496 -544
WIRE -256 -528 -288 -528
WIRE -224 -528 -256 -528
WIRE -192 -528 -224 -528
WIRE -560 -512 -592 -512
WIRE -400 -512 -416 -512
WIRE -384 -512 -400 -512
WIRE -352 -512 -384 -512
WIRE -496 -496 -512 -496
WIRE -384 -496 -384 -512
WIRE -592 -480 -592 -512
WIRE 224 -448 96 -448
WIRE -160 -432 -192 -432
WIRE -192 -400 -192 -432
WIRE 96 -400 96 -448
WIRE 112 -400 96 -400
WIRE -592 -384 -592 -400
WIRE -512 -384 -512 -496
WIRE -464 -384 -512 -384
WIRE -384 -384 -384 -432
WIRE -384 -384 -400 -384
WIRE -352 -384 -384 -384
WIRE -256 -384 -256 -528
WIRE -256 -384 -272 -384
WIRE 224 -384 176 -384
WIRE 560 -384 560 -544
WIRE 560 -384 496 -384
WIRE -512 -368 -512 -384
WIRE 112 -368 96 -368
WIRE 224 -352 192 -352
WIRE 528 -352 496 -352
WIRE 560 -352 528 -352
WIRE 96 -320 96 -368
WIRE 160 -320 96 -320
WIRE 192 -320 192 -352
WIRE -192 -304 -192 -320
WIRE -512 -272 -512 -288
WIRE 48 -272 48 -544
WIRE 80 -272 48 -272
WIRE 160 -256 160 -320
WIRE 160 -256 144 -256
WIRE -32 -240 -48 -240
WIRE 48 -240 32 -240
WIRE 80 -240 48 -240
WIRE 48 -224 48 -240
WIRE 48 -128 48 -144
WIRE 16 16 -320 16
WIRE 48 16 16 16
WIRE 80 16 48 16
WIRE -16 48 -544 48
WIRE -544 160 -544 48
WIRE -528 160 -544 160
WIRE -608 176 -640 176
WIRE -240 176 -464 176
WIRE -16 176 -16 48
WIRE -16 176 -48 176
WIRE 96 176 -16 176
WIRE 224 176 208 176
WIRE 272 176 224 176
WIRE -608 192 -608 176
WIRE -528 192 -544 192
WIRE -400 208 -416 208
WIRE -352 208 -400 208
WIRE -240 208 -352 208
WIRE 96 208 -48 208
WIRE 224 208 208 208
WIRE 272 208 224 208
WIRE -544 240 -544 192
WIRE -448 240 -544 240
WIRE 96 240 -48 240
WIRE 224 240 208 240
WIRE 272 240 224 240
WIRE 16 272 16 16
WIRE 16 272 -48 272
WIRE 96 272 16 272
WIRE 224 272 208 272
WIRE 272 272 224 272
WIRE -608 288 -608 256
WIRE -576 288 -608 288
WIRE -528 288 -576 288
WIRE -608 304 -608 288
WIRE -448 304 -448 240
WIRE -448 304 -464 304
WIRE -528 320 -560 320
WIRE -320 320 -320 16
WIRE -240 320 -320 320
WIRE 96 320 -48 320
WIRE 224 320 208 320
WIRE 272 320 224 320
WIRE -352 352 -352 208
WIRE -240 352 -352 352
WIRE 96 352 -48 352
WIRE 224 352 208 352
WIRE 272 352 224 352
WIRE 96 384 -48 384
WIRE 224 384 208 384
WIRE 272 384 224 384
WIRE -608 400 -608 384
WIRE 16 416 -48 416
WIRE 96 416 16 416
WIRE 224 416 208 416
WIRE 272 416 224 416
WIRE 80 480 64 480
WIRE 96 480 80 480
WIRE 224 480 208 480
WIRE 240 480 224 480
WIRE -144 496 -144 464
WIRE -560 528 -560 320
WIRE 16 528 16 416
WIRE 16 528 -560 528
FLAG -512 -272 0
FLAG -496 -528 0
FLAG -416 -512 q1
FLAG -192 -304 0
FLAG 192 -320 0
FLAG -192 -432 +5V
FLAG 192 -576 gen
FLAG 528 -352 gen
FLAG -224 -528 gen2
FLAG 48 -128 0
FLAG 0 -544 noise_out
FLAG -400 -512 0
FLAG -592 -384 0
FLAG -592 -512 gen
FLAG -144 496 0
FLAG -400 208 gen
FLAG 224 320 B4
FLAG 224 352 B3
FLAG 224 384 B2
FLAG 224 416 B1
FLAG 224 176 A4
FLAG 224 208 A3
FLAG 224 240 A2
FLAG 224 272 A1
FLAG 224 480 clk!
FLAG 80 480 gen
FLAG -608 400 0
FLAG -576 288 IN1
FLAG -640 176 +5V
FLAG 48 16 out
SYMBOL MDB_sym\\EXOR2s -320 -528 R0
SYMATTR InstName U1
SYMBOL EIT_Digital\\level-high -352 -544 R0
SYMATTR InstName U2
SYMBOL cap -400 -496 R0
SYMATTR InstName C1
SYMATTR Value 660p
SYMBOL diode -400 -400 R90
WINDOW 0 0 32 VBottom 2
WINDOW 3 32 32 VTop 2
SYMATTR InstName D1
SYMATTR Value 1N4148
SYMBOL res -528 -384 R0
SYMATTR InstName R1
SYMATTR Value 100k
SYMBOL res -256 -400 R90
WINDOW 0 7 56 VBottom 2
WINDOW 3 25 56 VTop 2
SYMATTR InstName R2
SYMATTR Value 20k
SYMBOL source-V -192 -416 R0
WINDOW 123 0 0 Left 2
WINDOW 39 0 0 Left 2
SYMATTR InstName V1
SYMATTR Value 5
SYMBOL EIT_Digital\\level-low 496 -512 R180
SYMATTR InstName U6
SYMBOL EIT_Digital\\level-low 224 -416 R0
SYMATTR InstName U7
SYMBOL MDB_sym\\EXOR2s 144 -384 R0
SYMATTR InstName U8
SYMBOL MDB_sym\\EXOR2s 112 -256 R0
SYMATTR InstName U9
SYMBOL res 32 -240 R0
SYMATTR InstName R3
SYMATTR Value 100k
SYMBOL cap -32 -224 R270
WINDOW 0 32 32 VTop 2
WINDOW 3 0 32 VBottom 2
SYMATTR InstName C2
SYMATTR Value 10n
SYMBOL EIT_Digital\\level-high -48 -240 R0
SYMATTR InstName U10
SYMBOL MDB_sym\\EXOR2s -464 -512 R0
SYMATTR InstName U3
SYMBOL source-V -592 -496 R0
WINDOW 123 0 0 Left 2
WINDOW 39 0 0 Left 2
WINDOW 3 7 -103 Left 2
SYMATTR InstName V2
SYMATTR Value PULSE(0 5 0 10n 10n 100u 200u)
SYMBOL EIT_Digital\\level-low -240 240 R0
SYMATTR InstName U16
SYMBOL EIT_Digital\\level-low -240 384 R0
SYMATTR InstName U17
SYMBOL EIT_Digital\\probe_dig 96 336 R0
SYMATTR Value T=2
SYMATTR InstName U20
SYMBOL EIT_Digital\\probe_dig 96 368 R0
SYMATTR Value T=1
SYMATTR InstName U21
SYMBOL EIT_Digital\\probe_dig 96 400 R0
SYMATTR Value T=0
SYMATTR InstName U22
SYMBOL EIT_Digital\\probe_dig 96 304 R0
SYMATTR Value T=3
SYMATTR InstName U23
SYMBOL EIT_Digital\\probe_dig 96 192 R0
SYMATTR Value T=2
SYMATTR InstName U24
SYMBOL EIT_Digital\\probe_dig 96 224 R0
SYMATTR Value T=1
SYMATTR InstName U29
SYMBOL EIT_Digital\\probe_dig 96 256 R0
SYMATTR Value T=0
SYMATTR InstName U30
SYMBOL EIT_Digital\\probe_dig 96 160 R0
SYMATTR Value T=3
SYMATTR InstName U31
SYMBOL MDB_sym\\CD4015B_DIL 320 -432 R0
SYMATTR InstName U15
SYMATTR Value2 VCC=5V
SYMBOL EIT_Digital\\probe_dig 96 464 R0
SYMATTR Value T=4
SYMATTR InstName U25
SYMBOL MDB_sym\\EXOR2s -496 304 R0
SYMATTR InstName U5
SYMBOL res -592 288 M0
SYMATTR InstName R4
SYMATTR Value 47k
SYMBOL cap -624 192 R0
SYMATTR InstName C3
SYMATTR Value 10n
SYMBOL MDB_sym\\EXOR2s -496 176 R0
SYMATTR InstName U12
SYMBOL MDB_sym\\CD4015B -144 288 R0
SYMATTR InstName U4
SYMATTR Value2 VCC=5.5V
TEXT -568 -120 Left 2 !.param vpwr$_digital=5
TEXT -536 -248 Left 2 !.tran 8m startup
TEXT -576 -48 Left 2 ;.ic V(IN1)=5V
TEXT -576 -80 Left 2 !.lib cd4000.lib
