Version 4
SHEET 1 880 680
WIRE -416 -704 -448 -704
WIRE -224 -704 -256 -704
WIRE 112 -704 80 -704
WIRE -448 -672 -448 -704
WIRE -256 -672 -256 -704
WIRE 80 -672 80 -704
WIRE -448 -576 -448 -592
WIRE -256 -576 -256 -592
WIRE 80 -576 80 -592
WIRE -256 -432 -592 -432
WIRE -288 -400 -816 -400
WIRE -816 -288 -816 -400
WIRE -800 -288 -816 -288
WIRE -880 -272 -912 -272
WIRE -512 -272 -752 -272
WIRE -288 -272 -288 -400
WIRE -288 -272 -320 -272
WIRE -192 -272 -208 -272
WIRE -160 -272 -192 -272
WIRE -880 -256 -880 -272
WIRE -800 -256 -816 -256
WIRE -656 -240 -672 -240
WIRE -624 -240 -656 -240
WIRE -512 -240 -624 -240
WIRE -816 -208 -816 -256
WIRE -736 -208 -816 -208
WIRE -256 -176 -256 -432
WIRE -256 -176 -320 -176
WIRE -192 -176 -256 -176
WIRE -880 -160 -880 -192
WIRE -864 -160 -880 -160
WIRE -800 -160 -864 -160
WIRE -880 -144 -880 -160
WIRE -736 -144 -736 -208
WIRE -736 -144 -752 -144
WIRE -800 -128 -832 -128
WIRE -592 -128 -592 -432
WIRE -512 -128 -592 -128
WIRE -624 -96 -624 -240
WIRE -512 -96 -624 -96
WIRE -224 -64 -240 -64
WIRE -160 -64 -224 -64
WIRE -880 -48 -880 -64
WIRE -96 -48 -112 -48
WIRE -80 -48 -96 -48
WIRE -256 -32 -320 -32
WIRE -416 48 -416 16
WIRE -832 80 -832 -128
WIRE -256 80 -256 -32
WIRE -256 80 -832 80
FLAG -256 -576 0
FLAG -256 -704 +5V
FLAG -448 -576 0
FLAG -448 -704 gen
FLAG -416 48 0
FLAG -656 -240 gen
FLAG -880 -48 0
FLAG -912 -272 +5V
FLAG -192 -176 out
IOPIN -192 -176 Out
FLAG -160 -272 gen
IOPIN -160 -272 Out
FLAG -192 -272 gen
FLAG 80 -576 0
FLAG 80 -704 needle
FLAG -224 -64 needle
FLAG -96 -48 in1
FLAG -160 -32 0
FLAG -864 -160 tmp
SYMBOL source-V -256 -688 R0
WINDOW 123 0 0 Left 2
WINDOW 39 0 0 Left 2
SYMATTR InstName V1
SYMATTR Value 5
SYMBOL source-V -448 -688 R0
WINDOW 123 0 0 Left 2
WINDOW 39 0 0 Left 2
WINDOW 3 -56 159 Left 2
SYMATTR Value PULSE(0 5 0 10n 10n {1/(2*fclk)} {1/(1*fclk)})
SYMATTR InstName V2
SYMBOL EIT_Digital\\level-low -512 -208 R0
SYMATTR InstName U9
SYMBOL EIT_Digital\\level-low -512 -64 R0
SYMATTR InstName U10
SYMBOL MDB_sym\\EXOR2s -784 -144 R0
SYMATTR InstName U21
SYMBOL res -864 -160 M0
SYMATTR InstName R4
SYMATTR Value 47k
SYMBOL cap -896 -256 R0
SYMATTR InstName C3
SYMATTR Value 10n
SYMBOL MDB_sym\\EXOR2s -784 -272 R0
SYMATTR InstName U22
SYMBOL MDB_sym\\CD4015B -416 -160 R0
SYMATTR InstName U23
SYMATTR Value2 VCC=5V
SYMBOL source-V 80 -688 R0
WINDOW 123 0 0 Left 2
WINDOW 39 0 0 Left 2
WINDOW 3 -56 159 Left 2
SYMATTR Value PULSE(5 0 100u 10n)
SYMATTR InstName V3
SYMBOL MDB_sym\\OR2s -144 -48 R0
SYMATTR InstName U1
TEXT -840 -568 Left 2 !.param vpwr$_digital=5\n.param fclk = 100k
TEXT -840 -600 Left 2 !.tran 8m startup
TEXT -840 -512 Left 2 !.lib cd4000.lib
TEXT -984 -312 Left 2 ;starthilfe
TEXT -928 -440 Left 2 !.ic V(tmp)=5V
RECTANGLE Normal -704 0 -992 -336 2
