Version 4
SHEET 1 880 680
WIRE -416 -704 -448 -704
WIRE -224 -704 -256 -704
WIRE -448 -672 -448 -704
WIRE -256 -672 -256 -704
WIRE -448 -576 -448 -592
WIRE -256 -576 -256 -592
WIRE -256 -432 -592 -432
WIRE -224 -432 -256 -432
WIRE -192 -432 -224 -432
WIRE -288 -400 -816 -400
WIRE -816 -288 -816 -400
WIRE -800 -288 -816 -288
WIRE -880 -272 -912 -272
WIRE -512 -272 -752 -272
WIRE -288 -272 -288 -400
WIRE -288 -272 -320 -272
WIRE -176 -272 -288 -272
WIRE -48 -272 -64 -272
WIRE 0 -272 -48 -272
WIRE -880 -256 -880 -272
WIRE -800 -256 -816 -256
WIRE -672 -240 -688 -240
WIRE -624 -240 -672 -240
WIRE -512 -240 -624 -240
WIRE -176 -240 -320 -240
WIRE -48 -240 -64 -240
WIRE 0 -240 -48 -240
WIRE -816 -208 -816 -256
WIRE -720 -208 -816 -208
WIRE -176 -208 -320 -208
WIRE -48 -208 -64 -208
WIRE 0 -208 -48 -208
WIRE -256 -176 -256 -432
WIRE -256 -176 -320 -176
WIRE -176 -176 -256 -176
WIRE -48 -176 -64 -176
WIRE 0 -176 -48 -176
WIRE -880 -160 -880 -192
WIRE -848 -160 -880 -160
WIRE -800 -160 -848 -160
WIRE -880 -144 -880 -160
WIRE -720 -144 -720 -208
WIRE -720 -144 -752 -144
WIRE -800 -128 -832 -128
WIRE -592 -128 -592 -432
WIRE -512 -128 -592 -128
WIRE -176 -128 -320 -128
WIRE -48 -128 -64 -128
WIRE 0 -128 -48 -128
WIRE -624 -96 -624 -240
WIRE -512 -96 -624 -96
WIRE -176 -96 -320 -96
WIRE -48 -96 -64 -96
WIRE 0 -96 -48 -96
WIRE -176 -64 -320 -64
WIRE -48 -64 -64 -64
WIRE 0 -64 -48 -64
WIRE -880 -48 -880 -64
WIRE -256 -32 -320 -32
WIRE -176 -32 -256 -32
WIRE -48 -32 -64 -32
WIRE 0 -32 -48 -32
WIRE -192 32 -208 32
WIRE -176 32 -192 32
WIRE -48 32 -64 32
WIRE -16 32 -48 32
WIRE -416 48 -416 16
WIRE -832 80 -832 -128
WIRE -256 80 -256 -32
WIRE -256 80 -832 80
WIRE -304 208 -608 208
WIRE -608 304 -608 208
WIRE -576 304 -608 304
WIRE -480 320 -528 320
WIRE -304 320 -304 208
WIRE -304 320 -352 320
WIRE -256 320 -304 320
WIRE -240 320 -256 320
WIRE -112 320 -128 320
WIRE -80 320 -112 320
WIRE -640 336 -656 336
WIRE -576 336 -640 336
WIRE -640 368 -656 368
WIRE -480 368 -640 368
FLAG -256 -576 0
FLAG -256 -704 +5V
FLAG -448 -576 0
FLAG -448 -704 gen
FLAG -416 48 0
FLAG -672 -240 gen
FLAG -48 -128 B4
FLAG -48 -96 B3
FLAG -48 -64 B2
FLAG -48 -32 B1
FLAG -48 -272 A4
FLAG -48 -240 A3
FLAG -48 -208 A2
FLAG -48 -176 A1
FLAG -48 32 clk!
FLAG -192 32 gen
FLAG -880 -48 0
FLAG -848 -160 IN1
FLAG -912 -272 +5V
FLAG -224 -432 out
FLAG -640 368 gen
FLAG -640 336 out
FLAG -256 320 par
FLAG -112 320 par!
SYMBOL source-V -256 -688 R0
WINDOW 123 0 0 Left 2
WINDOW 39 0 0 Left 2
SYMATTR InstName V1
SYMATTR Value 5
SYMBOL source-V -448 -688 R0
WINDOW 123 0 0 Left 2
WINDOW 39 0 0 Left 2
WINDOW 3 -56 159 Left 2
SYMATTR Value PULSE(0 5 0 10n 10n 100u 200u)
SYMATTR InstName V2
SYMBOL EIT_Digital\\level-low -512 -208 R0
SYMATTR InstName U9
SYMBOL EIT_Digital\\level-low -512 -64 R0
SYMATTR InstName U10
SYMBOL EIT_Digital\\probe_dig -176 -112 R0
SYMATTR Value T=2
SYMATTR InstName U11
SYMBOL EIT_Digital\\probe_dig -176 -80 R0
SYMATTR Value T=1
SYMATTR InstName U12
SYMBOL EIT_Digital\\probe_dig -176 -48 R0
SYMATTR Value T=0
SYMATTR InstName U13
SYMBOL EIT_Digital\\probe_dig -176 -144 R0
SYMATTR Value T=3
SYMATTR InstName U14
SYMBOL EIT_Digital\\probe_dig -176 -256 R0
SYMATTR Value T=2
SYMATTR InstName U15
SYMBOL EIT_Digital\\probe_dig -176 -224 R0
SYMATTR Value T=1
SYMATTR InstName U16
SYMBOL EIT_Digital\\probe_dig -176 -192 R0
SYMATTR Value T=1
SYMATTR InstName U17
SYMBOL EIT_Digital\\probe_dig -176 -288 R0
SYMATTR Value T=3
SYMATTR InstName U18
SYMBOL EIT_Digital\\probe_dig -176 16 R0
SYMATTR Value T=0
SYMATTR InstName U20
SYMBOL MDB_sym\\EXOR2s -784 -144 R0
SYMATTR InstName U21
SYMBOL res -864 -160 M0
SYMATTR InstName R4
SYMATTR Value 47k
SYMBOL cap -896 -256 R0
SYMATTR InstName C3
SYMATTR Value 10n
SYMBOL MDB_sym\\EXOR2s -784 -272 R0
SYMATTR InstName U22
SYMBOL MDB_sym\\CD4015B -416 -160 R0
SYMATTR InstName U23
SYMATTR Value2 VCC=5.5V
SYMBOL MDB_sym\\EXOR2s -560 320 R0
SYMATTR InstName U2
SYMATTR Value TD=30n
SYMBOL EIT_Digital\\DFF -416 304 R0
SYMATTR InstName U1
SYMBOL EIT_Digital\\probe_dig -240 304 R0
SYMATTR Value T=2
SYMATTR InstName U3
TEXT -840 -568 Left 2 !.param vpwr$_digital=5
TEXT -840 -600 Left 2 !.tran 8m startup
TEXT -848 -496 Left 2 ;.ic V(IN1)=5V
TEXT -848 -528 Left 2 !.lib cd4000.lib
TEXT -648 472 Left 2 ;Getaktete serielle Paritätsprüfung
RECTANGLE Normal -48 528 -720 160 2
