Version 4
SHEET 1 1720 2596
WIRE -80 416 -80 384
WIRE -64 416 -80 416
WIRE -240 432 -256 432
WIRE 80 432 48 432
WIRE 112 432 80 432
WIRE 496 432 112 432
WIRE -112 448 -128 448
WIRE -64 448 -112 448
WIRE -240 464 -272 464
WIRE -112 480 -112 448
WIRE 112 512 112 432
WIRE 144 512 112 512
WIRE -272 560 -272 464
WIRE -224 560 -272 560
WIRE -112 560 -112 544
WIRE -112 560 -160 560
WIRE -48 560 -112 560
WIRE 48 560 48 432
WIRE 48 560 32 560
WIRE 144 576 64 576
WIRE 480 576 432 576
WIRE -272 592 -272 560
WIRE 448 640 432 640
WIRE -272 688 -272 672
WIRE 144 768 -96 768
WIRE -256 832 -256 816
WIRE 144 832 128 832
WIRE -96 880 -96 768
WIRE 144 896 16 896
WIRE 480 896 480 576
WIRE 480 896 432 896
WIRE -96 944 -96 912
WIRE 16 944 -96 944
WIRE 144 960 112 960
WIRE 496 960 496 432
WIRE 496 960 432 960
WIRE -96 976 -128 976
WIRE 16 992 16 944
WIRE 112 992 112 960
WIRE -128 1024 -128 976
WIRE -96 1056 -96 1008
WIRE 64 1056 64 576
WIRE 64 1056 -96 1056
WIRE 144 1056 64 1056
WIRE -128 1120 -128 1104
FLAG -256 912 0
FLAG -128 1120 0
FLAG 112 992 0
FLAG -256 816 +VCC
IOPIN -256 816 Out
FLAG -192 976 +VCC
IOPIN -192 976 Out
FLAG 144 1056 OUT
IOPIN 144 1056 Out
FLAG -256 432 0
FLAG -80 384 +VCC
IOPIN -80 384 Out
FLAG -272 688 0
FLAG 80 432 GEN
FLAG 128 832 0
FLAG 448 640 0
SYMBOL voltage -256 816 R0
WINDOW 123 0 0 Left 2
WINDOW 39 0 0 Left 2
WINDOW 0 46 21 Left 2
WINDOW 3 44 61 Left 2
SYMATTR InstName V1
SYMATTR Value 9V
SYMBOL CD4000\\CD4030B.i -48 832 R0
WINDOW 3 -42 16 Left 2
WINDOW 0 -26 -18 Left 2
SYMATTR InstName DD1.3
SYMATTR SpiceLine VDD=9  SPEED=1.0  TRIPDT=5e-9
SYMBOL CD4000\\CD4030B.i -48 928 R0
WINDOW 0 -31 116 Left 2
WINDOW 3 -35 158 Left 2
SYMATTR InstName DD1.4
SYMATTR SpiceLine VDD=9  SPEED=1.0  TRIPDT=5e-9
SYMBOL cap -192 992 R270
WINDOW 0 32 32 VTop 2
WINDOW 3 58 76 VBottom 2
SYMATTR InstName C2
SYMATTR Value 10n
SYMBOL Misc\\EuropeanResistor -144 1008 R0
WINDOW 0 -43 37 Left 2
WINDOW 3 -58 74 Left 2
SYMATTR InstName R3
SYMATTR Value 100k
SYMBOL Misc\\DIP16 288 608 R0
WINDOW 3 43 -152 Center 2
WINDOW 0 -52 -151 Center 2
SYMATTR Value CD4015B
SYMATTR InstName DD2
SYMBOL CD4000\\CD4030B.i -16 368 R0
WINDOW 3 -39 113 Left 2
SYMATTR InstName DD1.2
SYMATTR SpiceLine VDD=9  SPEED=1.0  TRIPDT=5e-9
SYMBOL CD4000\\CD4030B.i -192 384 R0
WINDOW 3 -49 116 Left 2
SYMATTR InstName DD1.1
SYMATTR SpiceLine VDD=9  SPEED=1.0  TRIPDT=5e-9
SYMBOL Misc\\EuropeanResistor -288 576 R0
SYMATTR InstName R1
SYMATTR Value 100k
SYMBOL Misc\\EuropeanResistor 48 544 R90
WINDOW 0 5 56 VBottom 2
WINDOW 3 27 56 VTop 2
SYMATTR InstName R2
SYMATTR Value 20k
SYMBOL cap -128 480 R0
SYMATTR InstName C1
SYMATTR Value 660pF
SYMBOL diode -160 544 R90
WINDOW 0 0 32 VBottom 2
WINDOW 3 32 32 VTop 2
SYMATTR InstName D1
SYMATTR Value 1N4148
TEXT 144 352 Left 2 !.tran 0 0.02 10u startup
TEXT 144 376 Left 2 !.lib cd4000.lib
TEXT 544 160 Left 2 !.SUBCKT CD4015B 1 2 3 4 5 6 7 8 9 10 11 12 13 14 15 16\nR2 8 16 10Meg\nXU2 7 P001 VDD 0 CD4049B VDD=9 SPEED=1.0 TRIPDT=5e-9\nXU3 P001 N001 VDD 0 CD4049B VDD=9 SPEED=1.0 TRIPDT=5e-9\nXU4 NC_01 N002 N001 N005 N009 N007 VDD 0 CD4013B VDD=9 SPEED=1.0 TRIPDT=5e-9\nXU5 N007 5 VDD 0 CD4049B VDD=9 SPEED=1.0 TRIPDT=5e-9\nXU6 9 N002 VDD 0 CD4049B VDD=9 SPEED=1.0 TRIPDT=5e-9\nXU7 6 P002 VDD 0 CD4049B VDD=9 SPEED=1.0 TRIPDT=5e-9\nXU8 P002 N005 VDD 0 CD4049B VDD=9 SPEED=1.0 TRIPDT=5e-9\nXU9 NC_02 N002 N009 N005 N013 N011 VDD 0 CD4013B VDD=9 SPEED=1.0 TRIPDT=5e-9\nXU10 N011 4 VDD 0 CD4049B VDD=9 SPEED=1.0 TRIPDT=5e-9\nXU11 NC_03 N002 N013 N005 N017 N015 VDD 0 CD4013B VDD=9 SPEED=1.0 TRIPDT=5e-9\nXU12 N015 3 VDD 0 CD4049B VDD=9 SPEED=1.0 TRIPDT=5e-9\nXU13 NC_04 N002 N017 N005 NC_05 N019 VDD 0 CD4013B VDD=9 SPEED=1.0 TRIPDT=5e-9\nXU14 N019 10 VDD 0 CD4049B VDD=9 SPEED=1.0 TRIPDT=5e-9\nXU1 15 P003 VDD 0 CD4049B VDD=9 SPEED=1.0 TRIPDT=5e-9\nXU15 P003 N003 VDD 0 CD4049B VDD=9 SPEED=1.0 TRIPDT=5e-9\nXU16 NC_06 N004 N003 N006 N010 N008 VDD 0 CD4013B VDD=9 SPEED=1.0 TRIPDT=5e-9\nXU17 N008 13 VDD 0 CD4049B VDD=9 SPEED=1.0 TRIPDT=5e-9\nXU18 1 N004 VDD 0 CD4049B VDD=9 SPEED=1.0 TRIPDT=5e-9\nXU19 14 P004 VDD 0 CD4049B VDD=9 SPEED=1.0 TRIPDT=5e-9\nXU20 P004 N006 VDD 0 CD4049B VDD=9 SPEED=1.0 TRIPDT=5e-9\nXU21 NC_07 N004 N010 N006 N014 N012 VDD 0 CD4013B VDD=9 SPEED=1.0 TRIPDT=5e-9\nXU22 N012 12 VDD 0 CD4049B VDD=9 SPEED=1.0 TRIPDT=5e-9\nXU23 NC_08 N004 N014 N006 N018 N016 VDD 0 CD4013B VDD=9 SPEED=1.0 TRIPDT=5e-9\nXU24 N016 11 VDD 0 CD4049B VDD=9 SPEED=1.0 TRIPDT=5e-9\nXU25 NC_09 N004 N018 N006 NC_10 N020 VDD 0 CD4013B VDD=9 SPEED=1.0 TRIPDT=5e-9\nXU26 N020 2 VDD 0 CD4049B VDD=9 SPEED=1.0 TRIPDT=5e-9\n.ENDS