Version 4
SHEET 1 880 680
WIRE -976 -784 -1008 -784
WIRE -1008 -752 -1008 -784
WIRE -976 -752 -1008 -752
WIRE -896 -752 -944 -752
WIRE -880 -752 -896 -752
WIRE -1008 -736 -1008 -752
WIRE -1008 -640 -1008 -656
WIRE -464 -544 -544 -544
WIRE -464 -512 -528 -512
WIRE -256 -496 -272 -496
WIRE -176 -496 -208 -496
WIRE -576 -448 -576 -496
WIRE -272 -448 -272 -496
WIRE -272 -448 -576 -448
WIRE -256 -448 -272 -448
WIRE -176 -448 -208 -448
WIRE 144 -432 112 -432
WIRE -528 -416 -528 -512
WIRE -464 -416 -528 -416
WIRE -544 -400 -544 -544
WIRE -464 -400 -544 -400
WIRE -400 -400 -416 -400
WIRE -560 -384 -560 -496
WIRE -464 -384 -560 -384
WIRE -400 -352 -400 -400
WIRE -368 -352 -400 -352
WIRE -544 -336 -544 -400
WIRE -464 -336 -544 -336
WIRE -288 -336 -320 -336
WIRE -176 -336 -176 -448
WIRE -176 -336 -208 -336
WIRE -160 -336 -176 -336
WIRE -96 -336 -112 -336
WIRE -560 -320 -560 -384
WIRE -464 -320 -560 -320
WIRE -368 -320 -416 -320
WIRE -576 -304 -576 -448
WIRE -464 -304 -576 -304
WIRE -288 -288 -304 -288
WIRE -528 -256 -528 -416
WIRE -464 -256 -528 -256
WIRE -544 -240 -544 -336
WIRE -496 -240 -544 -240
WIRE -368 -240 -416 -240
WIRE -576 -224 -576 -304
WIRE -496 -224 -576 -224
WIRE -368 -224 -400 -224
WIRE -288 -224 -320 -224
WIRE -176 -224 -208 -224
WIRE -368 -208 -384 -208
WIRE -800 -192 -848 -192
WIRE -784 -192 -800 -192
WIRE -688 -192 -736 -192
WIRE 64 -192 32 -192
WIRE 240 -192 176 -192
WIRE -544 -176 -544 -240
WIRE -464 -176 -544 -176
WIRE -304 -176 -304 -288
WIRE -288 -176 -304 -176
WIRE -800 -160 -848 -160
WIRE -784 -160 -800 -160
WIRE -688 -160 -736 -160
WIRE -560 -160 -560 -320
WIRE -464 -160 -560 -160
WIRE -400 -160 -400 -224
WIRE -400 -160 -416 -160
WIRE 64 -160 32 -160
WIRE 240 -160 176 -160
WIRE -576 -144 -576 -224
WIRE -464 -144 -576 -144
WIRE -816 -128 -848 -128
WIRE -800 -128 -816 -128
WIRE -784 -128 -800 -128
WIRE -688 -128 -736 -128
WIRE 64 -128 32 -128
WIRE 240 -128 176 -128
WIRE -304 -112 -304 -176
WIRE -976 -96 -992 -96
WIRE -800 -96 -848 -96
WIRE -784 -96 -800 -96
WIRE -688 -96 -736 -96
WIRE -528 -96 -528 -256
WIRE -464 -96 -528 -96
WIRE 64 -96 32 -96
WIRE 240 -96 176 -96
WIRE -384 -80 -384 -208
WIRE -384 -80 -416 -80
WIRE -560 -64 -560 -160
WIRE -464 -64 -560 -64
WIRE 64 -64 32 -64
WIRE 240 -64 176 -64
WIRE -976 -48 -1008 -48
WIRE -560 -32 -560 -64
WIRE -272 -32 -560 -32
WIRE -256 -32 -272 -32
WIRE -176 -32 -176 -224
WIRE -176 -32 -208 -32
WIRE 240 -32 176 -32
WIRE -1008 0 -1008 -48
WIRE -816 0 -816 -128
WIRE -272 0 -272 -32
WIRE -256 0 -272 0
WIRE -192 0 -208 0
WIRE -576 16 -576 -144
WIRE -560 16 -560 -32
WIRE -544 16 -544 -176
WIRE -528 16 -528 -96
FLAG 144 -432 +5V
FLAG -992 -96 clk
FLAG -800 -192 D0
FLAG -800 -160 D1
FLAG -800 -128 D2
FLAG -800 -96 D3
FLAG 32 -160 S
FLAG 32 -128 B
FLAG 32 -96 R0
FLAG 32 -64 R1
FLAG 240 -160 S_
FLAG 240 -128 B_
FLAG 240 -96 R0_
FLAG 240 -64 R1_
FLAG 240 -32 clk_
FLAG -1008 -640 0
FLAG 240 -192 Z_
FLAG 32 -192 Z
FLAG 64 -32 clk
FLAG -976 -784 clk
IOPIN -976 -784 Out
FLAG -688 -160 B
IOPIN -688 -160 Out
FLAG -688 -192 S
IOPIN -688 -192 Out
FLAG -576 -496 R1
FLAG -560 -496 R0
FLAG -304 -112 clk
IOPIN -304 -112 In
FLAG -464 -544 B
IOPIN -464 -544 In
FLAG -464 -512 S
IOPIN -464 -512 In
FLAG -96 -336 Z
SYMBOL source-Vmarker 112 -432 R0
SYMATTR InstName U10
SYMBOL EIT_Digital\\bin_up_counter -976 -192 R0
SYMATTR InstName U11
SYMBOL EIT_Digital\\probe_dig 64 -48 R0
SYMATTR Value T=0
SYMATTR InstName U13
SYMBOL source-V -1008 -752 R0
WINDOW 3 -2 186 Left 2
SYMATTR Value PULSE({VDIG} 0 {DELAY} 10n 10n {1/(2*fclk)} {1/fclk})
SYMATTR InstName V2
SYMBOL EIT_Digital\\probe_dig 64 -208 R0
SYMATTR Value T=5
SYMATTR InstName U15
SYMBOL EIT_Digital\\probe_dig 64 -48 M180
SYMATTR Value T=4
SYMATTR InstName U18
SYMBOL EIT_Digital\\probe_dig 64 -80 M180
SYMATTR Value T=3
SYMATTR InstName U19
SYMBOL EIT_Digital\\probe_dig 64 -112 M180
SYMATTR Value T=2
SYMATTR InstName U20
SYMBOL EIT_Digital\\probe_dig 64 -144 M180
SYMATTR Value T=1
SYMATTR InstName U21
SYMBOL MDB_sym\\jumper -752 -256 R0
SYMATTR InstName X2
SYMBOL MDB_sym\\jumper -752 -224 R0
SYMATTR InstName X3
SYMBOL MDB_sym\\jumper -752 -192 R0
SYMATTR InstName X4
SYMBOL MDB_sym\\jumper -752 -160 R0
SYMATTR InstName X5
SYMBOL EIT_Digital\\level-low -976 -192 R0
SYMATTR InstName U26
SYMBOL MDB_sym\\DFFs -224 -352 R0
SYMATTR InstName R3
SYMBOL MDB_sym\\DFFs -224 -240 R0
SYMATTR InstName R4
SYMBOL MDB_sym\\jumper -128 -400 R0
SYMATTR InstName X6
SYMBOL MDB_sym\\AND3sRin -448 -400 R0
SYMATTR InstName U17
SYMBOL MDB_sym\\AND3sRin -448 -320 R0
SYMATTR InstName U22
SYMBOL MDB_sym\\AND3sRin -448 -240 R0
SYMATTR InstName U23
SYMBOL MDB_sym\\AND3sRin -448 -160 R0
SYMATTR InstName U24
SYMBOL MDB_sym\\AND2sRin -448 -80 R0
SYMATTR InstName U25
SYMBOL MDB_sym\\OR2sRin -352 -336 R0
SYMATTR InstName U27
SYMBOL MDB_sym\\OR3sRin -352 -224 R0
SYMATTR InstName U28
SYMBOL EIT_Digital\\level-high -976 -144 R0
SYMATTR InstName U1
SYMBOL MDB_sym\\jumper -224 -560 R0
SYMATTR InstName X1
SYMBOL MDB_sym\\jumper -224 -64 R0
SYMATTR InstName X7
SYMBOL EIT_Digital\\level-low -176 -496 R180
SYMATTR InstName U2
SYMBOL EIT_Digital\\level-low -192 0 R180
SYMATTR InstName U3
SYMBOL EIT_Digital\\level-low -1008 -48 R0
SYMATTR InstName U4
SYMBOL MDB_sym\\inv2 -512 -304 R0
SYMATTR Description Ax=INV inverter
SYMATTR InstName U6
SYMBOL MDB_sym\\inv2 -512 -288 R0
SYMATTR Description Ax=INV inverter
SYMATTR InstName U7
SYMBOL MDB_sym\\inv2 -992 -816 R0
SYMATTR Description Ax=INV inverter
SYMATTR InstName U5
SYMBOL MDB_sym\\isoR0 -896 -736 R0
SYMATTR InstName U8
TEXT -720 -704 Left 2 !.tran 1m
TEXT -720 -656 Left 2 !.lib cd4000.lib
TEXT 40 -704 Left 2 !.param fclk = 1k\n.param DELAY = 0\n.param vpwr$_digital=5V\n.param VDIG = 5V
