Version 4
SHEET 1 880 680
WIRE 80 96 16 96
WIRE 96 96 80 96
WIRE 144 96 128 96
WIRE 208 112 192 112
WIRE 144 128 16 128
WIRE 208 128 208 112
WIRE 240 128 208 128
WIRE 320 144 288 144
WIRE 80 160 80 96
WIRE 144 160 80 160
WIRE 240 160 208 160
WIRE 208 176 208 160
WIRE 208 176 192 176
WIRE 144 192 16 192
FLAG 16 96 sel
IOPIN 16 96 In
FLAG 16 192 x0
IOPIN 16 192 In
FLAG 16 128 x1
IOPIN 16 128 In
FLAG 320 144 y
IOPIN 320 144 Out
SYMBOL MDB_sym\\AND2s 160 112 R0
SYMATTR InstName U1
SYMBOL MDB_sym\\AND2s 160 176 R0
WINDOW 0 -19 -38 Invisible 2
SYMATTR InstName U2
SYMBOL MDB_sym\\OR2s 256 144 R0
SYMATTR InstName U3
SYMBOL MDB_sym\\inv4 80 32 R0
SYMATTR InstName U5
TEXT 48 -32 Left 2 ;2 zu 1 Mux\ny=(sel ^ x1) v (_sel ^ x0)
RECTANGLE Normal 304 224 48 32 2
