Version 4
SHEET 1 1032 1524
WIRE 352 544 240 544
WIRE 464 544 432 544
WIRE 608 544 544 544
WIRE 720 544 672 544
WIRE 784 544 720 544
WIRE 432 592 432 544
WIRE 240 608 240 544
WIRE 352 608 352 544
WIRE 784 608 784 544
WIRE -64 624 -80 624
WIRE 48 624 16 624
WIRE 160 624 48 624
WIRE 160 672 80 672
WIRE -80 688 -80 624
WIRE 240 704 240 688
WIRE 432 704 432 672
WIRE 352 720 352 656
WIRE 784 720 784 688
WIRE -80 800 -80 768
WIRE 80 880 80 672
WIRE 720 880 720 544
WIRE 720 880 80 880
WIRE 608 1056 192 1056
WIRE 320 1104 320 1088
WIRE 336 1104 320 1104
WIRE 336 1152 336 1104
WIRE 192 1168 192 1056
WIRE 304 1168 192 1168
WIRE 416 1184 368 1184
WIRE 512 1184 480 1184
WIRE 560 1184 512 1184
WIRE 608 1184 608 1056
WIRE 608 1184 560 1184
WIRE 208 1200 192 1200
WIRE 304 1200 208 1200
WIRE 512 1216 512 1184
WIRE 336 1264 336 1216
WIRE 336 1264 320 1264
WIRE 512 1328 512 1296
WIRE 208 1392 208 1200
WIRE 288 1392 208 1392
WIRE 400 1392 352 1392
WIRE 400 1408 400 1392
WIRE 400 1504 400 1488
FLAG 240 704 0
FLAG 432 704 0
FLAG 352 720 0
FLAG 784 720 0
FLAG -80 800 0
FLAG 48 624 sig
FLAG 192 1200 sig
FLAG 512 1328 0
FLAG 512 1168 out
FLAG 560 1184 out
FLAG 400 1504 0
SYMBOL crtl-V-V 240 592 R0
SYMATTR InstName E1
SYMATTR Value 10k
SYMBOL crtl-V-V 432 576 R0
SYMATTR InstName E2
SYMATTR Value 1
SYMBOL res 768 592 R0
SYMATTR InstName R1
SYMATTR Value 1meg
SYMBOL source-V -80 672 R0
WINDOW 123 0 0 Left 2
WINDOW 39 0 0 Left 2
SYMATTR InstName V1
SYMATTR Value SINE(0 2 50)
SYMBOL res 560 528 R90
WINDOW 0 7 56 VBottom 2
WINDOW 3 25 56 VTop 2
SYMATTR InstName R2
SYMATTR Value 10
SYMBOL res 32 608 R90
WINDOW 0 7 56 VBottom 2
WINDOW 3 25 56 VTop 2
SYMATTR InstName R3
SYMATTR Value 100k
SYMBOL diode 608 560 R270
WINDOW 0 32 32 VTop 2
WINDOW 3 0 32 VBottom 2
SYMATTR InstName D1
SYMBOL source-Vmarker 320 1088 R0
SYMATTR Value V=10V
SYMATTR InstName U2
SYMBOL source-Vmarker 320 1264 R0
SYMATTR Value V=-10V
SYMATTR InstName U3
SYMBOL diode 416 1200 R270
WINDOW 0 32 32 VTop 2
WINDOW 3 0 32 VBottom 2
SYMATTR InstName D2
SYMATTR Value 1N4148
SYMBOL res 496 1200 R0
SYMATTR InstName R4
SYMATTR Value 100k
SYMBOL EIT_Semiconductors\\op_3 336 1184 R0
SYMATTR InstName U4
SYMBOL diode 288 1408 R270
WINDOW 0 32 32 VTop 2
WINDOW 3 0 32 VBottom 2
SYMATTR InstName D3
SYMATTR Value 1N4148
SYMBOL res 384 1392 R0
SYMATTR InstName R5
SYMATTR Value 100k
TEXT -120 16 Left 2 ;text a)\nbedingung UR2 = Ue(t)
TEXT 232 88 Left 2 ;Vop = UR1+UR2=UR1+Ue
TEXT 632 312 Left 2 ;IR2=UR2/R2\nIR2=Ue/R2=5V/5k=1mA\nwegen I- = 0A\nUR1=IR2*R2   r
TEXT -122 886 Left 2 !.tran 100m
RECTANGLE Normal 560 816 128 464 2
