Version 4
SHEET 1 880 680
WIRE 368 -208 352 -208
WIRE 368 -144 368 -208
WIRE 368 -48 368 -80
WIRE 368 80 368 16
WIRE 64 144 -96 144
WIRE 160 160 128 160
WIRE 320 160 240 160
WIRE -96 176 -96 144
WIRE 64 176 32 176
WIRE 32 240 32 176
WIRE 368 240 368 176
WIRE 368 240 32 240
WIRE 368 256 368 240
WIRE -96 288 -96 256
WIRE 368 368 368 336
FLAG 368 368 0
FLAG -96 288 0
SYMBOL EIT_Semiconductors\\op_3 96 160 M180
WINDOW 123 -17 69 Invisible 2
WINDOW 3 -16 43 Invisible 2
SYMATTR InstName U1
SYMBOL EIT_Semiconductors\\nmos 320 80 R0
SYMATTR InstName M1
SYMBOL res 144 176 R270
WINDOW 0 25 56 VTop 2
WINDOW 3 7 56 VBottom 2
SYMATTR InstName R1
SYMATTR Value 10
SYMBOL res 352 240 R0
SYMATTR InstName R2
SYMATTR Value 1
SYMBOL diode 352 -48 R0
SYMATTR InstName D1
SYMBOL diode 352 -144 R0
SYMATTR InstName D2
SYMBOL source-Vmarker 352 -208 R0
SYMATTR InstName U2
SYMBOL source-V -96 160 R0
WINDOW 3 -26 156 Left 2
WINDOW 123 0 0 Left 2
WINDOW 39 0 0 Left 2
SYMATTR InstName V1
SYMATTR Value PULSE(0 1 0 500m 1u 1u 500m)
