Version 4
SHEET 1 880 680
WIRE -368 -400 -368 -416
WIRE -368 -400 -448 -400
WIRE 0 -400 -16 -400
WIRE 16 -400 0 -400
WIRE 160 -400 128 -400
WIRE 176 -400 160 -400
WIRE -352 -368 -352 -416
WIRE -352 -368 -448 -368
WIRE 0 -368 -16 -368
WIRE 16 -368 0 -368
WIRE 160 -368 128 -368
WIRE 176 -368 160 -368
WIRE -336 -336 -336 -416
WIRE -336 -336 -448 -336
WIRE 0 -336 -16 -336
WIRE 16 -336 0 -336
WIRE 160 -336 128 -336
WIRE 176 -336 160 -336
WIRE -320 -304 -320 -416
WIRE -320 -304 -448 -304
WIRE 0 -304 -16 -304
WIRE 16 -304 0 -304
WIRE 160 -304 128 -304
WIRE 176 -304 160 -304
WIRE -304 -272 -304 -416
WIRE -304 -272 -448 -272
WIRE -288 -240 -288 -416
WIRE -288 -240 -448 -240
WIRE -368 -224 -368 -400
WIRE -240 -224 -368 -224
WIRE -192 -224 -208 -224
WIRE -352 -208 -352 -368
WIRE -240 -208 -352 -208
WIRE -192 -208 -208 -208
WIRE -112 -208 -144 -208
WIRE -320 -192 -320 -304
WIRE -240 -192 -320 -192
WIRE -192 -192 -208 -192
WIRE 0 -192 -16 -192
WIRE 16 -192 0 -192
WIRE 144 -192 128 -192
WIRE 176 -192 144 -192
WIRE -288 -176 -288 -240
WIRE -192 -176 -288 -176
WIRE -368 -128 -368 -224
WIRE -240 -128 -368 -128
WIRE -192 -128 -208 -128
WIRE -352 -112 -352 -208
WIRE -192 -112 -352 -112
WIRE -128 -112 -144 -112
WIRE -304 -96 -304 -272
WIRE -192 -96 -304 -96
WIRE -112 -64 -112 -208
WIRE -80 -64 -112 -64
WIRE -352 -48 -352 -112
WIRE -240 -48 -352 -48
WIRE -192 -48 -208 -48
WIRE -128 -48 -128 -112
WIRE -80 -48 -128 -48
WIRE -320 -32 -320 -192
WIRE -192 -32 -320 -32
WIRE -80 -32 -144 -32
WIRE 16 -32 -32 -32
WIRE -288 -16 -288 -176
WIRE -192 -16 -288 -16
WIRE -80 -16 -128 -16
WIRE -80 0 -112 0
WIRE -368 32 -368 -128
WIRE -192 32 -368 32
WIRE -352 48 -352 -48
WIRE -192 48 -352 48
WIRE -128 48 -128 -16
WIRE -128 48 -144 48
WIRE -336 64 -336 -336
WIRE -192 64 -336 64
WIRE -368 112 -368 32
WIRE -192 112 -368 112
WIRE -352 128 -352 48
WIRE -240 128 -352 128
WIRE -192 128 -208 128
WIRE -112 128 -112 0
WIRE -112 128 -144 128
WIRE -320 144 -320 -32
WIRE -192 144 -320 144
WIRE -368 176 -368 112
WIRE -352 176 -352 128
WIRE -336 176 -336 64
WIRE -320 176 -320 144
WIRE -304 176 -304 -96
WIRE -288 176 -288 -16
FLAG -448 -400 S1
IOPIN -448 -400 In
FLAG -448 -368 S0
IOPIN -448 -368 In
FLAG -448 -336 P3
IOPIN -448 -336 In
FLAG -448 -304 P2
IOPIN -448 -304 In
FLAG -448 -272 P1
IOPIN -448 -272 In
FLAG -448 -240 P0
IOPIN -448 -240 In
FLAG 144 -192 Ym
FLAG 160 -304 P0!
FLAG 160 -336 P1!
FLAG 160 -368 P2!
FLAG 160 -400 P3!
FLAG 0 -304 P0
FLAG 0 -336 P1
FLAG 0 -368 P2
FLAG 0 -400 P3
FLAG 0 -192 Y
FLAG 16 -32 Y
IOPIN 16 -32 Out
SYMBOL EIT_Digital\\probe_dig 16 -208 R0
SYMATTR Value T=4
SYMATTR InstName U1
SYMBOL MDB_sym\\AND4s -176 -208 R0
SYMATTR InstName U2
SYMBOL MDB_sym\\AND3s -176 -112 R0
SYMATTR InstName U3
SYMBOL MDB_sym\\AND3s -176 -32 R0
SYMATTR InstName U4
SYMBOL MDB_sym\\AND3s -176 48 R0
SYMATTR InstName U5
SYMBOL MDB_sym\\inv4 -256 -288 R0
SYMATTR InstName inv1
SYMBOL MDB_sym\\inv4 -256 -272 R0
SYMATTR InstName inv2
SYMBOL MDB_sym\\inv4 -256 -256 R0
SYMATTR InstName inv3
SYMBOL MDB_sym\\inv4 -256 -192 R0
SYMATTR InstName inv4
SYMBOL MDB_sym\\inv4 -256 -112 R0
SYMATTR InstName inv5
SYMBOL MDB_sym\\AND3s -176 128 R0
SYMATTR InstName U6
SYMBOL MDB_sym\\inv4 -256 64 R0
SYMATTR InstName inv6
SYMBOL MDB_sym\\OR5s -64 -48 R0
SYMATTR InstName U7
SYMBOL EIT_Digital\\probe_dig 16 -320 R0
SYMATTR Value T=5
SYMATTR InstName U8
SYMBOL EIT_Digital\\probe_dig 16 -352 R0
SYMATTR Value T=6
SYMATTR InstName U9
SYMBOL EIT_Digital\\probe_dig 16 -384 R0
SYMATTR Value T=7
SYMATTR InstName U10
SYMBOL EIT_Digital\\probe_dig 16 -416 R0
SYMATTR Value T=8
SYMATTR InstName U11
