Version 4
SHEET 1 880 680
WIRE 32 112 16 112
WIRE 96 112 32 112
WIRE 272 112 176 112
WIRE 288 112 272 112
WIRE 176 128 176 112
WIRE 96 144 96 112
WIRE 96 208 96 192
FLAG 176 208 0
FLAG 96 208 0
FLAG 32 112 in
FLAG 272 112 out
SYMBOL crtl-V-V 176 112 R0
SYMATTR InstName E1
SYMATTR Value {-1*vpwr$_digital}
SYMBOL delay -80 208 R0
SYMATTR InstName U1
