Version 4
SHEET 1 1432 680
WIRE -320 -1344 -352 -1344
WIRE -272 -1344 -320 -1344
WIRE -208 -1344 -240 -1344
WIRE -240 -1328 -240 -1344
WIRE -352 -1312 -352 -1344
WIRE 416 -1280 400 -1280
WIRE 448 -1280 416 -1280
WIRE 400 -1248 400 -1280
WIRE -352 -1216 -352 -1232
WIRE 48 -992 48 -1040
WIRE 512 -992 48 -992
WIRE 560 -992 512 -992
WIRE 624 -976 608 -976
WIRE 640 -976 624 -976
WIRE 16 -960 16 -1040
WIRE 480 -960 16 -960
WIRE 560 -960 480 -960
WIRE -16 -880 -16 -1040
WIRE 96 -880 -16 -880
WIRE 192 -864 176 -864
WIRE 16 -848 16 -960
WIRE 128 -848 16 -848
WIRE 192 -848 192 -864
WIRE 208 -848 192 -848
WIRE -320 -832 -320 -848
WIRE 288 -832 256 -832
WIRE 336 -832 288 -832
WIRE 464 -832 432 -832
WIRE 480 -832 480 -960
WIRE 480 -832 464 -832
WIRE 544 -832 480 -832
WIRE 624 -832 592 -832
WIRE 640 -832 624 -832
WIRE -16 -816 -16 -880
WIRE 96 -816 -16 -816
WIRE 208 -816 192 -816
WIRE 192 -800 192 -816
WIRE 192 -800 176 -800
WIRE 48 -784 48 -992
WIRE 96 -784 48 -784
WIRE 336 -784 304 -784
WIRE 352 -704 336 -704
WIRE 384 -704 384 -736
WIRE 384 -704 352 -704
WIRE -320 -672 -320 -832
WIRE -256 -672 -320 -672
WIRE -16 -672 -16 -816
WIRE 96 -672 -16 -672
WIRE 192 -656 176 -656
WIRE 16 -640 16 -848
WIRE 128 -640 16 -640
WIRE 192 -640 192 -656
WIRE 208 -640 192 -640
WIRE -288 -624 -304 -624
WIRE -256 -624 -288 -624
WIRE -96 -624 -128 -624
WIRE 288 -624 256 -624
WIRE 336 -624 288 -624
WIRE 464 -624 432 -624
WIRE 512 -624 512 -992
WIRE 512 -624 464 -624
WIRE 624 -624 512 -624
WIRE 640 -624 624 -624
WIRE -16 -608 -16 -672
WIRE 96 -608 -16 -608
WIRE 208 -608 192 -608
WIRE 192 -592 192 -608
WIRE 192 -592 176 -592
WIRE 48 -576 48 -784
WIRE 128 -576 48 -576
WIRE 304 -576 304 -784
WIRE 336 -576 304 -576
WIRE -16 -544 -16 -608
WIRE 16 -544 16 -640
WIRE 48 -544 48 -576
WIRE 352 -496 336 -496
WIRE 384 -496 384 -528
WIRE 384 -496 352 -496
WIRE -320 -480 -320 -672
WIRE 304 -480 304 -576
WIRE 304 -480 -320 -480
WIRE -96 -448 -96 -624
WIRE -96 -448 -320 -448
WIRE 128 -400 96 -400
WIRE 272 -400 240 -400
WIRE 128 -368 96 -368
WIRE 272 -368 240 -368
WIRE 128 -336 96 -336
WIRE 272 -336 240 -336
WIRE 128 -304 96 -304
WIRE 272 -304 240 -304
WIRE 128 -272 96 -272
WIRE 272 -272 240 -272
WIRE 448 -272 416 -272
WIRE 592 -272 560 -272
WIRE -320 -256 -320 -448
WIRE -256 -256 -320 -256
WIRE 128 -240 96 -240
WIRE 272 -240 240 -240
WIRE 448 -240 416 -240
WIRE 592 -240 560 -240
WIRE -288 -208 -304 -208
WIRE -256 -208 -288 -208
WIRE 128 -208 96 -208
WIRE 272 -208 240 -208
WIRE 448 -208 416 -208
WIRE 592 -208 560 -208
WIRE 128 -176 96 -176
WIRE 272 -176 240 -176
FLAG -240 -1248 0
FLAG -240 -1344 clk
FLAG 96 -368 clkbit
FLAG 272 -368 clkbit!
FLAG 272 -336 x0!
FLAG 96 -336 x0
FLAG 96 -272 D1
FLAG 272 -272 D1!
FLAG 96 -400 clk
FLAG 272 -400 clk!
FLAG 272 -304 D0!
FLAG 96 -304 D0
FLAG 96 -240 R0
FLAG 272 -240 R0!
FLAG 96 -208 R1
FLAG 272 -208 R1!
FLAG 96 -176 R2
FLAG 272 -176 R2!
FLAG -352 -1216 0
FLAG -320 -1344 noise
FLAG -320 -832 clk
FLAG -16 -1040 x0
FLAG 464 -832 R1
FLAG 464 -624 R0
FLAG 16 -1040 R1
FLAG 48 -1040 R0
FLAG -96 -624 x0
FLAG 288 -832 D1
FLAG 288 -624 D0
FLAG 352 -704 clr
FLAG 352 -496 clr
FLAG -288 -624 clr
FLAG -288 -208 clr
FLAG 400 -1168 0
FLAG 416 -1280 clr
FLAG 416 -240 S2
FLAG 592 -240 S2!
FLAG 416 -208 S1
FLAG 592 -208 S1!
FLAG 624 -624 S1
FLAG 624 -832 S2
FLAG 624 -976 S3
FLAG 416 -272 S3
FLAG 592 -272 S3!
FLAG -16 -544 x0
FLAG 16 -544 R1
FLAG 48 -544 R0
SYMBOL EIT_Digital\\probe_dig 128 -384 R0
SYMATTR Value T=0.5
SYMATTR InstName U1
SYMBOL source-V -240 -1344 R0
WINDOW 3 -72 138 Left 2
SYMATTR Value PULSE({VDIG} 0 {DELAY} 10n 10n {1/(2*fclk)} {1/fclk})
SYMATTR InstName V1
SYMBOL EIT_Digital\\probe_dig 128 -352 R0
SYMATTR Value T=1
SYMATTR InstName U2
SYMBOL EIT_Digital\\probe_dig 128 -320 R0
SYMATTR Value T=2
SYMATTR InstName U3
SYMBOL MDB_sym\\DFF_Rs 384 -816 R0
SYMATTR InstName R1
SYMBOL EIT_Digital\\probe_dig 128 -416 R0
SYMATTR Value T=0
SYMATTR InstName U8
SYMBOL EIT_Digital\\probe_dig 128 -288 R0
SYMATTR Value T=3
SYMATTR InstName U9
SYMBOL EIT_Digital\\probe_dig 128 -256 R0
SYMATTR Value T=5
SYMATTR InstName U10
SYMBOL EIT_Digital\\probe_dig 128 -224 R0
SYMATTR Value T=6
SYMATTR InstName U11
SYMBOL EIT_Digital\\probe_dig 128 -192 R0
SYMATTR Value T=7
SYMATTR InstName U12
SYMBOL bv -352 -1328 R0
WINDOW 3 -68 156 Left 2
SYMATTR Value V=if(random(500*TIME), 5V, 0V)
SYMATTR InstName B1
SYMBOL EIT_Digital\\bin_up_counter -256 -768 R0
SYMATTR InstName U13
SYMBOL EIT_Digital\\level-high -256 -720 R0
SYMATTR InstName U14
SYMBOL EIT_Digital\\level-low -256 -768 R0
SYMATTR InstName U15
SYMBOL MDB_sym\\DFF_Rs 384 -608 R0
SYMATTR InstName R0
SYMBOL MDB_sym\\OR2s 224 -624 R0
SYMATTR InstName U18
SYMBOL MDB_sym\\inv4 80 -736 R0
SYMATTR InstName U20
SYMBOL MDB_sym\\AND2s 144 -656 R0
WINDOW 0 -19 -38 Invisible 2
SYMATTR InstName U21
SYMBOL MDB_sym\\AND2s 144 -592 R0
WINDOW 0 -19 -38 Invisible 2
SYMATTR InstName U22
SYMBOL MDB_sym\\OR2s 224 -832 R0
SYMATTR InstName U19
SYMBOL MDB_sym\\AND2s 144 -864 R0
WINDOW 0 -19 -38 Invisible 2
SYMATTR InstName U23
SYMBOL MDB_sym\\AND2s 144 -800 R0
WINDOW 0 -19 -38 Invisible 2
SYMATTR InstName U24
SYMBOL MDB_sym\\inv4 80 -672 R0
SYMATTR InstName U25
SYMBOL MDB_sym\\inv4 80 -944 R0
SYMATTR InstName U26
SYMBOL MDB_sym\\inv4 80 -880 R0
SYMATTR InstName U27
SYMBOL MDB_sym\\inv4 80 -848 R0
SYMATTR InstName U28
SYMBOL EIT_Digital\\bin_up_counter -256 -352 R0
SYMATTR InstName U29
SYMBOL EIT_Digital\\level-high -256 -304 R0
SYMATTR InstName U30
SYMBOL EIT_Digital\\level-low -256 -352 R0
SYMATTR InstName U31
SYMBOL bv 400 -1264 R0
SYMATTR InstName B3
SYMATTR Value V=1-u(time-50u)
SYMBOL EIT_Digital\\probe_dig 448 -256 R0
SYMATTR Value T=2
SYMATTR InstName U4
SYMBOL EIT_Digital\\probe_dig 448 -224 R0
SYMATTR Value T=1
SYMATTR InstName U5
SYMBOL MDB_sym\\AND2s 576 -976 R0
WINDOW 0 -19 -38 Invisible 2
SYMATTR InstName U6
SYMBOL MDB_sym\\jumper 576 -896 R0
SYMATTR InstName X1
SYMBOL EIT_Digital\\probe_dig 448 -288 R0
SYMATTR Value T=3
SYMATTR InstName U7
TEXT 104 -1384 Left 2 !;tran {16*8*1/fclk+DELAY} startup
TEXT -144 -1376 Left 2 !.param fclk = 2k\n.param N = 32\n.param NN = 8\n.param DELAY = 0\n.param vpwr$_digital=5V\n.param VDIG = 5V
TEXT -408 -1600 Left 2 ;***************************************************************\nEntwurf digitaler Systeme | Skript   Prof. Schäfer\nKlausur 2014 Aufgabe 1\n10-07-2015   MDB\n***************************************************************\nSchaltwerk entsprechend Musterlösung\nund eigener Lösung\n***************************************************************
TEXT -502 -506 Left 2 !.tran {15/fclk}
