Version 4
SHEET 1 1436 772
WIRE 528 -1456 496 -1456
WIRE 688 -1456 656 -1456
WIRE 688 -1424 656 -1424
WIRE 528 -1408 496 -1408
WIRE 688 -1392 656 -1392
WIRE 496 -1376 496 -1408
WIRE 528 -1376 496 -1376
WIRE 688 -1360 656 -1360
WIRE 528 -1344 496 -1344
WIRE 528 -1296 496 -1296
WIRE 80 -1248 48 -1248
WIRE 160 -1248 128 -1248
WIRE 240 -1248 208 -1248
WIRE 320 -1248 288 -1248
WIRE 48 -1200 48 -1248
WIRE 128 -1200 128 -1248
WIRE 208 -1200 208 -1248
WIRE 288 -1200 288 -1248
WIRE 928 -1200 912 -1200
WIRE 944 -1200 928 -1200
WIRE 544 -1184 512 -1184
WIRE 912 -1184 912 -1200
WIRE 48 -1104 48 -1120
WIRE 128 -1104 128 -1120
WIRE 208 -1104 208 -1120
WIRE 288 -1104 288 -1120
WIRE 912 -1088 912 -1104
WIRE 96 -912 32 -912
WIRE 608 -912 96 -912
WIRE 992 -912 960 -912
WIRE 1136 -912 1104 -912
WIRE 640 -880 128 -880
WIRE 992 -880 960 -880
WIRE 1136 -880 1104 -880
WIRE 672 -848 160 -848
WIRE 992 -848 960 -848
WIRE 1136 -848 1104 -848
WIRE 992 -816 960 -816
WIRE 1136 -816 1104 -816
WIRE 96 -800 96 -912
WIRE 208 -800 96 -800
WIRE 256 -800 240 -800
WIRE 128 -784 128 -880
WIRE 256 -784 128 -784
WIRE 320 -784 304 -784
WIRE 992 -784 960 -784
WIRE 1136 -784 1104 -784
WIRE 160 -768 160 -848
WIRE 256 -768 160 -768
WIRE 320 -768 320 -784
WIRE 336 -768 320 -768
WIRE 432 -752 384 -752
WIRE 576 -752 560 -752
WIRE 640 -752 640 -880
WIRE 640 -752 576 -752
WIRE 992 -752 960 -752
WIRE 1136 -752 1104 -752
WIRE 128 -736 128 -784
WIRE 208 -736 128 -736
WIRE 256 -736 240 -736
WIRE 336 -736 320 -736
WIRE 320 -720 320 -736
WIRE 320 -720 304 -720
WIRE 992 -720 960 -720
WIRE 1136 -720 1104 -720
WIRE 160 -704 160 -768
WIRE 208 -704 160 -704
WIRE 256 -704 240 -704
WIRE 432 -704 400 -704
WIRE 608 -688 608 -912
WIRE 704 -688 608 -688
WIRE 752 -688 736 -688
WIRE 992 -688 960 -688
WIRE 1136 -688 1104 -688
WIRE 640 -672 640 -752
WIRE 704 -672 640 -672
WIRE 752 -672 736 -672
WIRE 816 -672 800 -672
WIRE 832 -672 816 -672
WIRE 672 -656 672 -848
WIRE 752 -656 672 -656
WIRE 992 -656 960 -656
WIRE 1136 -656 1104 -656
WIRE 96 -640 96 -800
WIRE 256 -640 96 -640
WIRE 128 -624 128 -736
WIRE 256 -624 128 -624
WIRE 320 -624 304 -624
WIRE 992 -624 960 -624
WIRE 1136 -624 1104 -624
WIRE 160 -608 160 -704
WIRE 256 -608 160 -608
WIRE 320 -608 320 -624
WIRE 336 -608 320 -608
WIRE 432 -592 384 -592
WIRE 576 -592 560 -592
WIRE 672 -592 672 -656
WIRE 672 -592 576 -592
WIRE 992 -592 960 -592
WIRE 1136 -592 1104 -592
WIRE 128 -576 128 -624
WIRE 208 -576 128 -576
WIRE 256 -576 240 -576
WIRE 336 -576 320 -576
WIRE 320 -560 320 -576
WIRE 320 -560 304 -560
WIRE 992 -560 960 -560
WIRE 1136 -560 1104 -560
WIRE 160 -544 160 -608
WIRE 208 -544 160 -544
WIRE 256 -544 240 -544
WIRE 400 -544 400 -704
WIRE 432 -544 400 -544
WIRE 992 -528 960 -528
WIRE 1136 -528 1104 -528
WIRE 96 -480 96 -640
WIRE 128 -480 128 -576
WIRE 160 -480 160 -544
WIRE 400 -480 400 -544
WIRE 608 -480 608 -688
WIRE 640 -480 640 -672
WIRE 672 -480 672 -592
WIRE 400 -224 368 -224
WIRE 448 -224 400 -224
WIRE 640 -224 608 -224
WIRE 672 -224 640 -224
WIRE 448 -176 368 -176
WIRE 448 -144 368 -144
WIRE 448 -112 368 -112
WIRE 448 -80 368 -80
WIRE 688 -80 608 -80
WIRE 448 -48 368 -48
FLAG 544 -1184 +5V
FLAG 208 -1104 0
FLAG 208 -1248 clk
FLAG 496 -1344 clk_by_N
FLAG 496 -1296 0
FLAG 960 -784 x1
FLAG 1136 -784 X1!
FLAG 960 -816 clk
FLAG 1136 -816 clk!
FLAG 128 -1104 0
FLAG 128 -1248 clk_N
FLAG 400 -480 clk_N
FLAG 576 -752 R1
FLAG 576 -592 R0
FLAG 816 -672 Z
FLAG 960 -848 clk_N
FLAG 1136 -848 clk_N!
FLAG 288 -1104 0
FLAG 288 -1248 state
FLAG 688 -1456 X0
FLAG 688 -1424 X1
FLAG 128 -480 R1
FLAG 160 -480 R0
FLAG 96 -480 x
FLAG 32 -912 x
FLAG 672 -480 R0
FLAG 640 -480 R1
FLAG 608 -480 x
FLAG 960 -752 x0
FLAG 1136 -752 X0!
FLAG 688 -1392 x
FLAG 1136 -528 Y!
FLAG 1136 -560 P0!
FLAG 1136 -592 P1!
FLAG 1136 -624 P2!
FLAG 1136 -656 P3!
FLAG 960 -560 P0
FLAG 960 -592 P1
FLAG 960 -624 P2
FLAG 960 -656 P3
FLAG 688 -1360 X3
FLAG 48 -1104 0
FLAG 48 -1248 clk_by_N
FLAG 960 -912 clk_N
FLAG 1136 -912 clk_N3!
FLAG 1136 -688 S0!
FLAG 1136 -720 S1!
FLAG 960 -688 S0
FLAG 960 -720 S1
FLAG 912 -1088 0
FLAG 928 -1200 par
FLAG 960 -528 Y
FLAG 960 -880 clk_by_N
FLAG 1136 -880 clk_by_N!
FLAG 640 -224 Y
FLAG 400 -224 clk
SYMBOL EIT_Digital\\probe_dig 992 -832 R0
SYMATTR Value T=0
SYMATTR InstName U1
SYMBOL source-V 208 -1216 R0
WINDOW 3 -4 150 Left 2
WINDOW 123 0 0 Left 2
WINDOW 39 0 0 Left 2
SYMATTR Value PULSE({VDIG} 0 {DELAY} 10n 10n {1/(2*fclk)} {1/fclk})
SYMATTR InstName V1
SYMBOL EIT_Digital\\Bin_up_down_counter 528 -1456 R0
SYMATTR InstName U2
SYMBOL EIT_Digital\\level-high 496 -1408 R0
SYMATTR InstName U3
SYMBOL EIT_Digital\\probe_dig 992 -800 R0
SYMATTR Value T=3
SYMATTR InstName U5
SYMBOL source-V 128 -1216 R0
WINDOW 3 -36 185 Left 2
WINDOW 0 -43 42 VRight 2
WINDOW 123 0 0 Left 2
WINDOW 39 0 0 Left 2
SYMATTR Value PULSE({VDIG} 0 {DELAY} 10n 10n {1/(2*N*fclk)} {1/(N*fclk)})
SYMATTR InstName V2
SYMBOL EIT_Digital\\DFF 496 -768 R0
WINDOW 3 -61 105 Invisible 2
SYMATTR InstName R1
SYMBOL EIT_Digital\\DFF 496 -608 R0
WINDOW 3 -61 105 Invisible 2
SYMATTR InstName R0
SYMBOL MDB_sym\\AND3s 272 -784 R0
SYMATTR InstName U8
SYMBOL MDB_sym\\inv4 192 -800 R0
SYMATTR InstName inv1
SYMBOL EIT_Digital\\level-low 496 -1456 R0
SYMATTR InstName U10
SYMBOL EIT_Digital\\probe_dig 992 -864 R0
SYMATTR Value T=0.2
SYMATTR InstName U11
SYMBOL bv 288 -1216 R0
WINDOW 3 31 112 Left 2
SYMATTR InstName B1
SYMATTR Value V=(V(X0)+2*V(X1))/3
SYMBOL source-Vmarker 512 -1184 R0
SYMATTR InstName U13
SYMBOL MDB_sym\\OR2s 352 -752 R0
SYMATTR InstName U14
SYMBOL MDB_sym\\AND2s 272 -720 R0
WINDOW 0 -19 -38 Invisible 2
SYMATTR InstName U15
SYMBOL MDB_sym\\inv4 192 -768 R0
SYMATTR InstName inv2
SYMBOL MDB_sym\\inv4 192 -864 R0
SYMATTR InstName inv3
SYMBOL MDB_sym\\AND3s 272 -624 R0
SYMATTR InstName U16
SYMBOL MDB_sym\\inv4 192 -640 R0
SYMATTR InstName inv4
SYMBOL MDB_sym\\OR2s 352 -592 R0
SYMATTR InstName U17
SYMBOL MDB_sym\\AND2s 272 -560 R0
WINDOW 0 -19 -38 Invisible 2
SYMATTR InstName U19
SYMBOL MDB_sym\\inv4 192 -608 R0
SYMATTR InstName inv5
SYMBOL MDB_sym\\AND3s 768 -672 R0
SYMATTR InstName U6
SYMBOL MDB_sym\\inv4 688 -752 R0
SYMATTR InstName inv6
SYMBOL MDB_sym\\inv4 688 -736 R0
SYMATTR InstName inv7
SYMBOL EIT_Digital\\probe_dig 992 -544 R0
SYMATTR Value T=4
SYMATTR InstName U4
SYMBOL EIT_Digital\\probe_dig 992 -768 R0
SYMATTR Value T=2
SYMATTR InstName U12
SYMBOL EIT_Digital\\probe_dig 992 -576 R0
SYMATTR Value T=5
SYMATTR InstName U18
SYMBOL EIT_Digital\\probe_dig 992 -608 R0
SYMATTR Value T=6
SYMATTR InstName U28
SYMBOL EIT_Digital\\probe_dig 992 -640 R0
SYMATTR Value T=7
SYMATTR InstName U34
SYMBOL EIT_Digital\\probe_dig 992 -672 R0
SYMATTR Value T=8
SYMATTR InstName U35
SYMBOL source-V 48 -1216 R0
WINDOW 3 -34 218 Left 2
WINDOW 0 -43 42 VRight 2
WINDOW 123 0 0 Left 2
WINDOW 39 0 0 Left 2
SYMATTR Value PULSE({VDIG} 0 {DELAY} 10n 10n {NN/(2*fclk)} {NN/(fclk)})
SYMATTR InstName V7
SYMBOL EIT_Digital\\probe_dig 992 -928 R0
SYMATTR Value T=3
SYMATTR InstName U30
SYMBOL EIT_Digital\\probe_dig 992 -704 R0
SYMATTR Value T=9
SYMATTR InstName U23
SYMBOL EIT_Digital\\probe_dig 992 -736 R0
SYMATTR Value T=10
SYMATTR InstName U36
SYMBOL bv 912 -1200 R0
WINDOW 0 23 22 Left 2
WINDOW 3 -46 144 Left 2
SYMATTR InstName B2
SYMATTR Value V=V(P0)+2*V(P1)+4*V(P2)+8*V(P3)
SYMBOL EIT_Digital\\probe_dig 992 -896 R0
SYMATTR Value T=0.4
SYMATTR InstName U24
SYMBOL EIT_Digital\\level-low 368 -144 R0
SYMATTR InstName U38
SYMBOL EIT_Digital\\level-low 368 -112 R0
SYMATTR InstName U39
SYMBOL EIT_Digital\\level-high 368 -176 R0
SYMATTR InstName U40
SYMBOL EIT_Digital\\level-high 368 -80 R0
SYMATTR InstName U41
SYMBOL EIT_Digital\\level-low 368 -48 R0
SYMATTR InstName U7
SYMBOL par4_to_serial 544 -160 R0
SYMATTR InstName X1
TEXT 800 -1488 Left 2 !.tran {8*8*1/fclk+DELAY} startup
TEXT 800 -1288 Left 2 !.lib cd4000.lib
TEXT 800 -1448 Left 2 !.param fclk = 1k\n.param N = 32\n.param NN = 8\n.param DELAY = 0n\n.param vpwr$_digital=1V\n.param VDIG = 1V
TEXT 456 -1720 Left 2 ;***************************************************************\nEntwurf digitaler Systeme | Skript   Prof. Schäfer\nBeispiel Mustererkennung\n08-02-2015   MDB\n***************************************************************
TEXT 48 -1696 Left 2 ;Zustand      Binär       Dezimal\n                   Code       äquivalent    \n     A             00           0 \n  B1,C1         11           3 \n  B2,C2         01           1 \n     F             10            2
TEXT 16 -1472 Left 2 ;Y      = _x ^ _R1 ^ R0\nR1+ = (_x ^ R1 ^ R0) v (_R0 ^ _R1)\nR0+ = (x ^ R1 ^ R0) v (_R0 ^ _R1)
