Version 4
SHEET 1 912 892
WIRE 224 -608 192 -608
WIRE 416 -608 384 -608
WIRE 192 -576 192 -608
WIRE 384 -576 384 -608
WIRE 304 -544 272 -544
WIRE 272 -512 272 -544
WIRE 192 -480 192 -496
WIRE 384 -480 384 -496
WIRE 272 -416 272 -432
WIRE 192 -256 -112 -256
WIRE -112 -160 -112 -256
WIRE -64 -160 -112 -160
WIRE 16 -144 -16 -144
WIRE 192 -144 192 -256
WIRE 192 -144 144 -144
WIRE 240 -144 192 -144
WIRE 256 -144 240 -144
WIRE -144 -128 -160 -128
WIRE -64 -128 -144 -128
WIRE -144 -96 -160 -96
WIRE 16 -96 -144 -96
WIRE -384 144 -416 144
WIRE -368 144 -384 144
WIRE -240 144 -256 144
WIRE -208 144 -240 144
WIRE 304 144 272 144
WIRE 352 176 352 160
WIRE 368 176 352 176
WIRE 272 208 272 144
WIRE 368 208 352 208
WIRE 352 224 352 208
WIRE -560 256 -592 256
WIRE -400 256 -432 256
WIRE -368 256 -400 256
WIRE -224 256 -256 256
WIRE -192 256 -224 256
WIRE -96 272 -96 240
WIRE -32 272 -96 272
WIRE 32 272 0 272
WIRE -400 288 -432 288
WIRE -368 288 -400 288
WIRE -224 288 -256 288
WIRE -192 288 -224 288
WIRE 96 288 80 288
WIRE -560 304 -592 304
WIRE -64 304 -64 240
WIRE 32 304 -64 304
WIRE -400 320 -432 320
WIRE -368 320 -400 320
WIRE -224 320 -256 320
WIRE -192 320 -224 320
WIRE 96 320 96 288
WIRE 128 320 96 320
WIRE -560 336 -592 336
WIRE 208 336 176 336
WIRE 336 336 320 336
WIRE 368 336 336 336
WIRE 128 352 96 352
WIRE -672 368 -688 368
WIRE -560 368 -672 368
WIRE -96 368 -96 272
WIRE 32 368 -96 368
WIRE 96 384 96 352
WIRE 96 384 80 384
WIRE -80 400 -80 240
WIRE 32 400 -80 400
WIRE -560 416 -592 416
WIRE -96 432 -96 368
WIRE -80 432 -80 400
WIRE -64 432 -64 304
WIRE 384 464 368 464
WIRE 416 464 384 464
WIRE 544 464 528 464
WIRE 576 464 544 464
WIRE 400 496 368 496
WIRE 416 496 400 496
WIRE 544 496 528 496
WIRE 576 496 544 496
WIRE 384 528 368 528
WIRE 416 528 384 528
WIRE 544 528 528 528
WIRE 576 528 544 528
WIRE 384 560 368 560
WIRE 416 560 384 560
WIRE 544 560 528 560
WIRE 576 560 544 560
WIRE -80 576 -80 560
WIRE -80 592 -80 576
WIRE 112 592 -80 592
WIRE 176 592 144 592
WIRE -80 624 -80 592
WIRE -48 624 -80 624
WIRE 176 640 176 592
WIRE 208 640 176 640
WIRE -160 656 -208 656
WIRE -48 656 -160 656
WIRE 0 656 0 640
WIRE 16 656 0 656
WIRE 112 672 64 672
WIRE 208 672 112 672
WIRE 256 672 256 656
WIRE 272 672 256 672
WIRE -80 688 -80 624
WIRE 16 688 0 688
WIRE 368 688 320 688
WIRE 384 688 368 688
WIRE 0 704 0 688
WIRE 176 704 176 640
WIRE 272 704 256 704
WIRE -48 720 -128 720
WIRE 256 720 256 704
WIRE 208 736 128 736
WIRE -128 768 -128 720
WIRE 112 768 112 672
WIRE 112 768 -128 768
WIRE 128 784 128 736
WIRE 368 784 368 688
WIRE 368 784 128 784
FLAG -144 -96 clk
FLAG -144 -128 out
FLAG 240 -144 par
FLAG 384 -480 0
FLAG 384 -608 +5V
FLAG 192 -480 0
FLAG 192 -608 clk
FLAG -96 240 sel
FLAG -80 240 b
FLAG -64 240 a
FLAG -672 368 clk
FLAG -592 416 0
FLAG -592 256 0
FLAG -400 256 a
FLAG -400 288 b
FLAG -400 320 sel
FLAG -160 -128 0
FLAG -224 320 sel!
FLAG -224 288 b!
FLAG -224 256 a!
FLAG 336 336 ya!
FLAG -384 144 clk
FLAG -240 144 clk!
FLAG -80 576 clk90
FLAG 368 688 Y
FLAG 544 560 Y!
FLAG -160 656 D
FLAG 544 464 D!
FLAG 272 -416 0
FLAG 272 -544 clk90
FLAG 400 496 clk90
FLAG 544 496 clk90!
FLAG -272 656 a
FLAG 112 672 G
FLAG 544 528 G!
FLAG 384 560 Y
FLAG 384 528 G
FLAG 384 464 D
FLAG 304 176 0
FLAG 304 240 0
FLAG 272 144 0
SYMBOL MDB_sym\\EXOR2s -48 -144 R0
SYMATTR InstName U1
SYMATTR Value TD=30n
SYMBOL EIT_Digital\\DFF 80 -160 R0
SYMATTR InstName U2
SYMBOL EIT_Digital\\probe_dig -368 128 R0
SYMATTR Value T=0
SYMATTR InstName U3
SYMBOL source-V 384 -592 R0
WINDOW 123 0 0 Left 2
WINDOW 39 0 0 Left 2
SYMATTR InstName V1
SYMATTR Value 5
SYMBOL source-V 192 -592 R0
WINDOW 3 -56 159 Left 2
SYMATTR InstName V2
SYMATTR Value PULSE(0 5 10u 10n 10n {1/(2*fclk)} {1/fclk})
SYMBOL MDB_sym\\AND2s 48 288 R0
SYMATTR InstName U4
SYMBOL MDB_sym\\AND2s 48 384 R0
SYMATTR InstName U5
SYMBOL MDB_sym\\OR2s 144 336 R0
SYMATTR InstName U6
SYMBOL EIT_Digital\\Bin_up_down_counter -560 256 R0
SYMATTR InstName U7
SYMBOL EIT_Digital\\level-high -592 336 R0
SYMATTR InstName U8
SYMBOL EIT_Digital\\level-high -592 304 R0
SYMATTR InstName U9
SYMBOL EIT_Digital\\probe_dig -368 240 R0
SYMATTR Value T=3
SYMATTR InstName U10
SYMBOL EIT_Digital\\probe_dig -368 272 R0
SYMATTR Value T=2
SYMATTR InstName U11
SYMBOL EIT_Digital\\probe_dig -368 304 R0
SYMATTR Value T=1
SYMATTR InstName U12
SYMBOL EIT_Digital\\probe_dig 208 320 R0
SYMATTR Value T=4
SYMATTR InstName U13
SYMBOL MDB_sym\\inv2 -48 208 R0
WINDOW 0 8 40 Left 2
SYMATTR InstName U17
SYMBOL MDB_sym\\AND2s -32 640 R0
WINDOW 0 -19 -38 Invisible 2
SYMATTR InstName U14
SYMBOL MDB_sym\\OR2s 32 672 R0
SYMATTR InstName U16
SYMBOL EIT_Digital\\probe_dig 416 544 R0
SYMATTR Value T=1
SYMATTR InstName U25
SYMBOL EIT_Digital\\probe_dig 416 448 R0
SYMATTR Value T=4
SYMATTR InstName U23
SYMBOL source-V 272 -528 R0
WINDOW 3 -56 159 Left 2
WINDOW 123 0 0 Left 2
WINDOW 39 0 0 Left 2
SYMATTR InstName V3
SYMATTR Value PULSE(0 5 {10u+1/(3*fclk)} 10n 10n {1/(2*fclk)} {1/fclk})
SYMBOL EIT_Digital\\probe_dig 416 480 R0
SYMATTR Value T=3
SYMATTR InstName U24
SYMBOL MDB_sym\\jumperRes -240 592 R0
SYMATTR InstName U26
SYMBOL EIT_Digital\\probe_dig 416 512 R0
SYMATTR Value T=2
SYMATTR InstName U28
SYMBOL MDB_sym\\inv4 96 528 R0
SYMATTR InstName U29
SYMBOL MDB_sym\\inv4 -96 624 R0
SYMATTR InstName U18
SYMBOL MDB_sym\\inv4 160 640 R0
SYMATTR InstName U22
SYMBOL MDB_sym\\AND2s 320 160 R0
WINDOW 0 -19 -38 Invisible 2
SYMATTR InstName U27
SYMATTR Value TD=0n
SYMBOL MDB_sym\\AND2s 320 224 R0
WINDOW 0 -19 -38 Invisible 2
SYMATTR InstName U30
SYMATTR Value TD=0n
SYMBOL MDB_sym\\OR2s 384 192 R0
SYMATTR InstName U31
SYMATTR Value TD=0n
SYMBOL MDB_sym\\inv4 256 144 R0
SYMATTR InstName U32
SYMBOL MDB_sym\\AND2s -32 704 R0
WINDOW 0 -19 -38 Invisible 2
SYMATTR InstName U15
SYMBOL MDB_sym\\AND2s 224 656 R0
WINDOW 0 -19 -38 Invisible 2
SYMATTR InstName U19
SYMBOL MDB_sym\\AND2s 224 720 R0
WINDOW 0 -19 -38 Invisible 2
SYMATTR InstName U20
SYMBOL MDB_sym\\OR2s 288 688 R0
SYMATTR InstName U21
TEXT -152 8 Left 2 ;Getaktete serielle Paritätsprüfung
TEXT -200 -472 Left 2 !.param vpwr$_digital=5
TEXT -200 -504 Left 2 !.tran {8*1/fclk+10u} startup
TEXT -208 -400 Left 2 ;.ic V(IN1)=5V
TEXT -208 -432 Left 2 !.lib cd4000.lib
TEXT -200 -544 Left 2 !.param fclk = 100k
TEXT -104 640 Left 2 ;1
TEXT -104 704 Left 2 ;0
TEXT 16 720 Left 1 ;MUX
TEXT 152 656 Left 2 ;1
TEXT 152 720 Left 2 ;0
TEXT 272 736 Left 1 ;MUX
TEXT 248 160 Left 2 ;1
TEXT 248 224 Left 2 ;0
RECTANGLE Normal 448 64 -224 -304 2
RECTANGLE Normal 80 736 -112 608 2
RECTANGLE Normal 336 752 144 624 2
RECTANGLE Normal 432 256 240 128 2
