Version 4
SHEET 1 1556 680
WIRE 1136 -1088 1104 -1088
WIRE 1280 -1088 1248 -1088
WIRE 1136 -1056 1104 -1056
WIRE 1280 -1056 1248 -1056
WIRE 368 -992 336 -992
WIRE 1136 -976 1104 -976
WIRE 1280 -976 1248 -976
WIRE 1136 -944 1104 -944
WIRE 1280 -944 1248 -944
WIRE 336 -912 336 -992
WIRE 608 -912 592 -912
WIRE 720 -912 688 -912
WIRE 736 -912 720 -912
WIRE 1136 -912 1104 -912
WIRE 1280 -912 1248 -912
WIRE 1136 -880 1104 -880
WIRE 1280 -880 1248 -880
WIRE 608 -848 592 -848
WIRE 720 -848 688 -848
WIRE 736 -848 720 -848
WIRE 1136 -848 1104 -848
WIRE 1280 -848 1248 -848
WIRE 336 -816 336 -832
WIRE 1136 -816 1104 -816
WIRE 1280 -816 1248 -816
WIRE 1136 -752 1104 -752
WIRE 1280 -752 1248 -752
WIRE 768 -736 736 -736
WIRE 1136 -720 1104 -720
WIRE 1280 -720 1248 -720
WIRE 736 -688 736 -736
WIRE 160 -656 -144 -656
WIRE -144 -608 -144 -656
WIRE -112 -608 -144 -608
WIRE -48 -592 -64 -592
WIRE -16 -592 -48 -592
WIRE 736 -592 736 -608
WIRE -144 -576 -176 -576
WIRE -112 -576 -144 -576
WIRE -16 -544 -64 -544
WIRE 160 -528 160 -656
WIRE 160 -528 112 -528
WIRE 576 -528 160 -528
WIRE -16 -512 -48 -512
WIRE 416 -496 112 -496
WIRE -16 -480 -64 -480
WIRE 576 -480 496 -480
WIRE 192 -464 112 -464
WIRE 448 -464 416 -464
WIRE -16 -432 -48 -432
WIRE 160 -432 112 -432
WIRE 192 -352 192 -464
WIRE 240 -352 192 -352
WIRE 304 -352 240 -352
WIRE -144 -336 -144 -576
WIRE -16 -336 -144 -336
WIRE 160 -320 160 -432
WIRE 240 -320 160 -320
WIRE 304 -320 240 -320
WIRE 880 -304 848 -304
WIRE 976 -304 944 -304
WIRE -16 -288 -48 -288
WIRE 160 -272 112 -272
WIRE 304 -272 240 -272
WIRE 400 -272 384 -272
WIRE 416 -272 416 -464
WIRE 416 -272 400 -272
WIRE 880 -272 848 -272
WIRE 976 -272 944 -272
WIRE -16 -256 -48 -256
WIRE -160 -240 -208 -240
WIRE 160 -240 112 -240
WIRE 304 -240 240 -240
WIRE 880 -240 848 -240
WIRE 976 -240 944 -240
WIRE -16 -224 -112 -224
WIRE -176 -208 -208 -208
WIRE -160 -208 -176 -208
WIRE 160 -208 112 -208
WIRE 304 -208 240 -208
WIRE 880 -208 848 -208
WIRE 976 -208 944 -208
WIRE -176 -192 -176 -208
WIRE -16 -176 -48 -176
WIRE 160 -176 112 -176
WIRE 304 -176 240 -176
WIRE -176 -96 -176 -112
WIRE 880 -32 848 -32
WIRE 976 -32 944 -32
WIRE -16 0 -80 0
WIRE 880 0 848 0
WIRE 976 0 944 0
WIRE 496 32 464 32
WIRE 624 32 576 32
WIRE 880 32 848 32
WIRE 976 32 944 32
WIRE -16 48 -64 48
WIRE 496 64 464 64
WIRE 624 64 576 64
WIRE 880 64 848 64
WIRE 976 64 944 64
WIRE 160 96 112 96
WIRE 496 96 464 96
WIRE 624 96 576 96
WIRE 496 128 464 128
WIRE 624 128 576 128
FLAG 240 -352 S1
FLAG 240 -320 S0
FLAG 720 -912 CE
FLAG -64 -480 CE
FLAG -208 -240 CE
FLAG 720 -848 RES
FLAG -176 -576 RES
FLAG 336 -816 0
FLAG 368 -992 PAR
IOPIN 368 -992 Out
FLAG 576 -480 Y
IOPIN 576 -480 Out
FLAG -48 -592 CLR
FLAG 464 32 D3
IOPIN 464 32 BiDir
FLAG 464 64 D2
IOPIN 464 64 BiDir
FLAG 464 96 D1
IOPIN 464 96 BiDir
FLAG 464 128 D0
IOPIN 464 128 BiDir
FLAG -208 -208 EXT_D
IOPIN -208 -208 In
FLAG 576 -528 ST
IOPIN 576 -528 Out
FLAG -64 -544 CLK_Bit
FLAG -48 -288 CLK_Sym
FLAG -80 0 RES
FLAG -64 48 CLK_Bit
IOPIN -64 48 In
FLAG -16 112 CE
FLAG 160 96 CLK_Sym
FLAG 624 32 P3
IOPIN 624 32 BiDir
FLAG 624 64 P2
IOPIN 624 64 BiDir
FLAG 624 96 P1
IOPIN 624 96 BiDir
FLAG 624 128 P0
IOPIN 624 128 BiDir
FLAG 160 -272 P3
FLAG 160 -240 P2
FLAG 160 -208 P1
FLAG 160 -176 P0
FLAG 848 -304 P3
FLAG 848 -272 P2
FLAG 848 -240 P1
FLAG 848 -208 P0
FLAG 976 -304 P3
FLAG 976 -272 P2
FLAG 976 -240 P1
FLAG 976 -208 P0
FLAG 848 -32 P3
FLAG 848 0 P2
FLAG 848 32 P1
FLAG 848 64 P0
FLAG 976 64 P3
FLAG 976 32 P2
FLAG 976 0 P1
FLAG 976 -32 P0
FLAG 240 -272 P3
FLAG 240 -240 P2
FLAG 240 -208 P1
FLAG 240 -176 P0
FLAG 400 -272 q
FLAG 736 -592 0
FLAG 736 -752 clk_bit
FLAG 1280 -752 Y!
FLAG 1280 -816 P0!
FLAG 1280 -848 P1!
FLAG 1280 -880 P2!
FLAG 1280 -912 P3!
FLAG 1104 -816 P0
FLAG 1104 -848 P1
FLAG 1104 -880 P2
FLAG 1104 -912 P3
FLAG 1280 -944 S0!
FLAG 1280 -976 S1!
FLAG 1104 -944 S0
FLAG 1104 -976 S1
FLAG 1104 -752 Y
FLAG 1280 -720 clr!
FLAG 1104 -720 CLR
FLAG 1280 -1056 CLK_Sym!
FLAG 1280 -1088 CLK_Bit!
FLAG 1104 -1088 CLK_Bit
FLAG 1104 -1056 CLK_Sym
SYMBOL EIT_Digital\\Bin_up_down_counter -16 -432 M180
WINDOW 3 1 191 Invisible 2
SYMATTR InstName U21
SYMBOL EIT_Digital\\level-high -48 -512 M180
SYMATTR InstName U22
SYMBOL EIT_Digital\\level-low -48 -432 M180
SYMATTR InstName U23
SYMBOL EIT_Digital\\Bin_up_down_counter -16 -176 M180
WINDOW 3 1 191 Invisible 2
SYMATTR InstName U24
SYMBOL EIT_Digital\\level-low -48 -176 M180
SYMATTR InstName U25
SYMBOL EIT_Digital\\level-high -48 -256 M180
SYMATTR InstName U27
SYMBOL bv 336 -928 R0
WINDOW 0 23 22 Left 2
WINDOW 3 -46 144 Left 2
SYMATTR InstName B2
SYMATTR Value V=V(P0)+2*V(P1)+4*V(P2)+8*V(P3)
SYMBOL MDB_sym\\AND2s 464 -480 R0
WINDOW 0 -19 -38 Invisible 2
SYMATTR InstName U33
SYMBOL MDB_sym\\OR2s -96 -592 R0
WINDOW 0 -19 -38 Invisible 2
SYMATTR InstName U35
SYMATTR Value TD=50n
SYMBOL MDB_sym\\inv4 400 -560 R0
SYMATTR InstName inv8
SYMBOL MDB_sym\\EXOR2s -144 -224 R0
SYMATTR InstName U2
SYMBOL res -192 -208 R0
SYMATTR InstName R1
SYMATTR Value 10k
SYMBOL EIT_Digital\\level-low -176 -96 M180
SYMATTR InstName U3
SYMBOL EIT_Digital\\Bin_up_down_counter -16 160 M180
WINDOW 3 1 191 Invisible 2
SYMATTR InstName U5
SYMBOL EIT_Digital\\level-high -16 80 M180
SYMATTR InstName U6
SYMBOL EIT_Digital\\level-low -16 160 M180
SYMATTR InstName U8
SYMBOL res 480 80 R270
WINDOW 0 46 50 Invisible 2
WINDOW 3 49 58 Invisible 2
SYMATTR InstName R3
SYMATTR Value 50k
SYMBOL res 480 112 R270
WINDOW 0 46 50 Invisible 2
WINDOW 3 49 58 Invisible 2
SYMATTR InstName R4
SYMATTR Value 50k
SYMBOL res 480 144 R270
WINDOW 0 46 50 Invisible 2
WINDOW 3 49 58 Invisible 2
SYMATTR InstName R5
SYMATTR Value 50k
SYMBOL res 480 48 R270
WINDOW 0 46 50 VTop 2
WINDOW 3 49 58 VBottom 2
SYMATTR InstName R6
SYMATTR Value 50k
SYMBOL MDB_sym\\jumperRes 912 -368 R0
WINDOW 0 0 40 Invisible 2
SYMATTR InstName U4
SYMBOL MDB_sym\\jumperRes 912 -336 R0
WINDOW 0 0 40 Invisible 2
SYMATTR InstName U9
SYMBOL MDB_sym\\jumperRes 912 -304 R0
WINDOW 0 0 40 Invisible 2
SYMATTR InstName U10
SYMBOL MDB_sym\\jumperRes 912 -272 R0
WINDOW 0 0 40 Invisible 2
SYMATTR InstName U11
SYMBOL EIT_Digital\\level-high 592 -912 M180
SYMATTR InstName U1
SYMBOL EIT_Digital\\level-low 592 -848 M180
SYMATTR InstName U7
SYMBOL res 592 -896 R270
WINDOW 0 46 50 VTop 2
WINDOW 3 49 58 VBottom 2
SYMATTR InstName R12
SYMATTR Value 50k
SYMBOL res 592 -832 R270
WINDOW 0 46 50 VTop 2
WINDOW 3 49 58 VBottom 2
SYMATTR InstName R13
SYMATTR Value 50k
SYMBOL mux1by4 336 -256 R0
SYMATTR InstName X1
SYMBOL source-V 736 -704 R0
WINDOW 3 -4 150 Left 2
WINDOW 123 0 0 Left 2
WINDOW 39 0 0 Left 2
SYMATTR Value PULSE(1 0 0 10n 10n 500u 1m)
SYMATTR InstName V1
SYMBOL EIT_Digital\\probe_dig 1136 -768 R0
SYMATTR Value T=4
SYMATTR InstName U12
SYMBOL EIT_Digital\\probe_dig 1136 -832 R0
SYMATTR Value T=5
SYMATTR InstName U13
SYMBOL EIT_Digital\\probe_dig 1136 -864 R0
SYMATTR Value T=6
SYMATTR InstName U14
SYMBOL EIT_Digital\\probe_dig 1136 -896 R0
SYMATTR Value T=7
SYMATTR InstName U15
SYMBOL EIT_Digital\\probe_dig 1136 -928 R0
SYMATTR Value T=8
SYMATTR InstName U16
SYMBOL EIT_Digital\\probe_dig 1136 -960 R0
SYMATTR Value T=9
SYMATTR InstName U17
SYMBOL EIT_Digital\\probe_dig 1136 -992 R0
SYMATTR Value T=10
SYMATTR InstName U18
SYMBOL EIT_Digital\\probe_dig 1136 -736 R0
SYMATTR Value T=3
SYMATTR InstName U19
SYMBOL EIT_Digital\\probe_dig 1136 -1072 R0
SYMATTR Value T=0
SYMATTR InstName U20
SYMBOL EIT_Digital\\probe_dig 1136 -1104 R0
SYMATTR Value T=0.2
SYMATTR InstName U26
TEXT -248 -944 Left 2 !.tran {8*8*1/clk_a} startup
TEXT -248 -744 Left 2 !.lib cd4000.lib
TEXT -248 -904 Left 2 !.param clk_a = 1k\n.param N = 8\n.param clk_b = {N*clk_a}\n.param vpwr$_digital=1V\n.param VDIG = 1V
TEXT -240 -1104 Left 2 ;EXT_D = 0             -->   Internal serial counter, EXTERNAL connection to D3...D0 not used\nEXT_D = 1 or NC   -->   External parallel data on D3...D0\nST   -->   Start indicator\nPAR   -->  decimal value vrom parallel port
TEXT -240 -1216 Left 2 ;***************************************************************\n4 bit Parallel zu Seriel Wandler\n08-02-2015   MDB\n***************************************************************
TEXT -24 -48 Left 2 ;Clock devider
TEXT 864 -360 Left 2 ;LSB first
TEXT 872 -88 Left 2 ;MSB first
TEXT 784 -904 Left 2 !.ic V(RES)=1\n.ic V(CE)=0
RECTANGLE Normal 1024 -176 800 -384 2
RECTANGLE Normal 1024 96 800 -112 2
