Version 4
SHEET 1 880 680
WIRE -480 -576 -480 -608
WIRE -688 -560 -736 -560
WIRE -640 -560 -688 -560
WIRE -544 -544 -592 -544
WIRE -720 -528 -736 -528
WIRE -672 -528 -720 -528
WIRE -544 -512 -576 -512
WIRE -688 -496 -688 -560
WIRE -640 -496 -688 -496
WIRE -544 -480 -592 -480
WIRE -368 -480 -416 -480
WIRE -336 -480 -368 -480
WIRE -720 -464 -720 -528
WIRE -640 -464 -720 -464
WIRE -480 -432 -480 -448
WIRE -576 -416 -576 -512
WIRE -576 -416 -608 -416
WIRE -544 -320 -720 -320
WIRE -720 -288 -720 -320
WIRE -704 -288 -720 -288
WIRE -608 -272 -656 -272
WIRE -704 -256 -816 -256
WIRE -544 -256 -544 -320
WIRE -544 -256 -560 -256
WIRE -496 -256 -544 -256
WIRE -640 -224 -640 -240
WIRE -640 -224 -816 -224
WIRE -336 -96 -336 -144
WIRE -64 -96 -64 -144
WIRE -496 -64 -512 -64
WIRE -400 -64 -496 -64
WIRE -128 -64 -272 -64
WIRE 48 -64 0 -64
WIRE 96 -64 48 -64
WIRE -496 -32 -512 -32
WIRE -464 -32 -496 -32
WIRE -400 -32 -464 -32
WIRE -240 -32 -272 -32
WIRE -160 -32 -208 -32
WIRE -752 -16 -784 -16
WIRE -656 -16 -688 -16
WIRE -752 16 -784 16
WIRE -656 16 -688 16
WIRE -496 32 -512 32
WIRE -336 32 -336 16
WIRE -336 32 -496 32
WIRE -240 32 -240 -32
WIRE -64 32 -64 16
WIRE -64 32 -240 32
WIRE -752 48 -784 48
WIRE -656 48 -688 48
WIRE -464 64 -464 -32
WIRE -208 64 -208 -32
WIRE -208 64 -464 64
WIRE -752 80 -784 80
WIRE -656 80 -688 80
FLAG -784 -16 P3
FLAG -784 16 P2
FLAG -784 48 P1
FLAG -784 80 P0
FLAG -656 -16 P3
FLAG -656 16 P2
FLAG -656 48 P1
FLAG -656 80 P0
FLAG -368 -480 stbuff
FLAG -608 -416 CLK_Bit
FLAG -736 -560 ST
IOPIN -736 -560 Out
FLAG -736 -528 S0
FLAG -496 -32 CLK_Bit
FLAG -496 -64 set
FLAG -496 32 rset
FLAG 48 -64 rsm
FLAG -512 -64 ST
IOPIN -512 -64 Out
FLAG -512 32 S1
FLAG -816 -256 ST
IOPIN -816 -256 Out
FLAG -816 -224 S0
FLAG -496 -256 asy
SYMBOL MDB_sym\\jumperRes -720 -80 R0
WINDOW 0 0 40 Invisible 2
SYMATTR InstName U1
SYMBOL MDB_sym\\jumperRes -720 -48 R0
WINDOW 0 0 40 Invisible 2
SYMATTR InstName U2
SYMBOL MDB_sym\\jumperRes -720 -16 R0
WINDOW 0 0 40 Invisible 2
SYMATTR InstName U3
SYMBOL MDB_sym\\jumperRes -720 16 R0
WINDOW 0 0 40 Invisible 2
SYMATTR InstName U4
SYMBOL EIT_Digital\\JKFF_RS -480 -576 R0
SYMATTR InstName U5
SYMBOL EIT_Digital\\level-low -480 -432 M270
SYMATTR InstName U6
SYMBOL MDB_sym\\AND2s -624 -544 R0
WINDOW 0 -19 -38 Invisible 2
SYMATTR InstName U7
SYMBOL MDB_sym\\inv4 -688 -592 R0
SYMATTR InstName inv1
SYMBOL MDB_sym\\AND2s -624 -480 R0
WINDOW 0 -19 -38 Invisible 2
SYMATTR InstName U8
SYMBOL EIT_Digital\\level-high -480 -608 M90
SYMATTR InstName U9
SYMBOL MDB_sym\\AND2s -592 -256 R0
WINDOW 0 -19 -38 Invisible 2
SYMATTR InstName U10
SYMBOL MDB_sym\\inv4 -656 -304 R0
SYMATTR InstName inv2
SYMBOL MDB_sym\\OR2s -688 -272 R0
WINDOW 0 -19 -38 Invisible 2
SYMATTR InstName U11
SYMBOL EIT_Digital\\DFF_RS -336 -96 R0
WINDOW 3 7 127 Invisible 2
SYMATTR InstName U12
SYMBOL EIT_Digital\\DFF_RS -64 -96 R0
WINDOW 3 7 127 Invisible 2
SYMATTR InstName U13
SYMBOL MDB_sym\\inv4 -176 -96 R0
SYMATTR InstName inv3
SYMBOL EIT_Digital\\level-low -336 -144 M90
SYMATTR InstName U14
SYMBOL EIT_Digital\\level-low -64 -144 M90
SYMATTR InstName U15
TEXT -768 -72 Left 2 ;LSB first
TEXT -776 -272 Left 2 ;set
TEXT -776 -240 Left 2 ;reset
RECTANGLE Normal -608 112 -832 -96 2
RECTANGLE Normal -528 -208 -784 -336 2
