Version 4
SHEET 1 880 680
WIRE -80 -880 -112 -880
WIRE -16 -880 -80 -880
WIRE -208 -864 -256 -864
WIRE -176 -864 -208 -864
WIRE -320 -848 -336 -848
WIRE -208 -848 -208 -864
WIRE -336 -736 -336 -848
WIRE -288 -736 -336 -736
WIRE -208 -736 -208 -784
WIRE -208 -736 -224 -736
WIRE -176 -736 -208 -736
WIRE -80 -736 -80 -880
WIRE -80 -736 -96 -736
WIRE -336 -720 -336 -736
WIRE -336 -624 -336 -640
WIRE -400 -528 -432 -528
WIRE -368 -528 -400 -528
WIRE -320 -528 -368 -528
WIRE -240 -528 -256 -528
WIRE -224 -528 -240 -528
WIRE -400 -496 -432 -496
WIRE -352 -496 -400 -496
WIRE -320 -496 -352 -496
WIRE -240 -496 -256 -496
WIRE -224 -496 -240 -496
WIRE -368 -448 -368 -528
WIRE -320 -448 -368 -448
WIRE -240 -448 -256 -448
WIRE -224 -448 -240 -448
WIRE -608 -432 -624 -432
WIRE -560 -432 -608 -432
WIRE -352 -416 -352 -496
WIRE -320 -416 -352 -416
WIRE -240 -416 -256 -416
WIRE -224 -416 -240 -416
WIRE 272 -416 256 -416
WIRE 304 -416 272 -416
WIRE 448 -416 416 -416
WIRE 272 -384 256 -384
WIRE 304 -384 272 -384
WIRE 448 -384 416 -384
WIRE -368 -368 -368 -448
WIRE -320 -368 -368 -368
WIRE -240 -368 -256 -368
WIRE -224 -368 -240 -368
WIRE 272 -352 256 -352
WIRE 304 -352 272 -352
WIRE 448 -352 416 -352
WIRE -352 -336 -352 -416
WIRE -320 -336 -352 -336
WIRE -240 -336 -256 -336
WIRE -224 -336 -240 -336
WIRE 272 -320 256 -320
WIRE 304 -320 272 -320
WIRE 448 -320 416 -320
WIRE 272 -288 256 -288
WIRE 304 -288 272 -288
WIRE 448 -288 416 -288
WIRE 128 -256 -144 -256
WIRE -128 -176 -144 -176
WIRE -32 -160 -64 -160
WIRE 128 -160 128 -256
WIRE 128 -160 96 -160
WIRE 160 -160 128 -160
WIRE 176 -160 160 -160
WIRE -128 -144 -176 -144
WIRE -48 -112 -176 -112
WIRE -32 -112 -48 -112
WIRE -272 -96 -272 -144
WIRE -176 -96 -176 -112
WIRE 32 -16 32 -80
WIRE -176 0 -176 -16
WIRE 32 16 32 -16
FLAG -272 -16 0
FLAG -176 0 0
FLAG 32 96 0
FLAG 160 -160 q
FLAG 32 -16 clr
FLAG -560 -528 0
FLAG -608 -432 clk
FLAG -48 -112 clk
FLAG -560 -384 0
FLAG -240 -448 o2
FLAG -240 -416 _o2
FLAG -240 -368 x1
FLAG -240 -336 _x1
FLAG 272 -288 u1
FLAG 272 -320 _u1
FLAG 272 -352 o2
FLAG 272 -384 _o2
FLAG 272 -416 x1
FLAG -400 -528 D0
FLAG -400 -496 D1
FLAG -240 -528 u1
FLAG -240 -496 _u2
FLAG -336 -624 0
FLAG -320 -880 0
FLAG -176 -144 0
FLAG -144 -176 0
SYMBOL source-V -272 -112 R0
WINDOW 3 -356 61 Left 2
WINDOW 123 0 0 Left 2
WINDOW 39 0 0 Left 2
SYMATTR Value PULSE(0 5 0 10n 10n 1m 3m)
SYMATTR InstName V1
SYMBOL source-V -176 -112 R0
WINDOW 3 -197 172 Left 2
WINDOW 123 0 0 Left 2
WINDOW 39 0 0 Left 2
SYMATTR Value PULSE(0 5 50u 10n 10n 1m 2m)
SYMATTR InstName V2
SYMBOL source-V 32 0 R0
WINDOW 123 0 0 Left 2
WINDOW 39 0 0 Left 2
SYMATTR InstName V3
SYMATTR Value PULSE(0 5 10m)
SYMBOL EIT_Digital\\probe_dig 304 -368 R0
SYMATTR Value T=2
SYMATTR InstName U2
SYMBOL EIT_Digital\\probe_dig 304 -336 R0
SYMATTR Value T=1
SYMATTR InstName U3
SYMBOL EIT_Digital\\probe_dig 304 -304 R0
SYMATTR Value T=0
SYMATTR InstName U4
SYMBOL EIT_Digital\\probe_dig 304 -400 R0
SYMATTR Value T=3
SYMATTR InstName U6
SYMBOL EIT_Digital\\probe_dig 304 -432 R0
SYMATTR Value T=4
SYMATTR InstName U8
SYMBOL EIT_Digital\\bin_up_counter -560 -528 R0
SYMATTR InstName U14
SYMBOL EIT_Digital\\level-high -560 -480 R0
SYMATTR InstName U13
SYMBOL MDB_sym\\AND2 -288 -512 R0
SYMATTR InstName U5
SYMBOL MDB_sym\\OR2 -288 -432 R0
SYMATTR InstName U7
SYMBOL MDB_sym\\EXOR2 -288 -352 R0
SYMATTR InstName U9
SYMBOL MDB_sym\\EXOR2s -96 -160 R0
SYMATTR InstName U11
SYMBOL EIT_Digital\\TFF_R 32 -192 R0
SYMATTR InstName U1
SYMBOL MDB_sym\\EXOR2s -144 -880 R0
SYMATTR InstName U12
SYMBOL EIT_Digital\\level-high -176 -896 R0
SYMATTR InstName U15
SYMBOL cap -224 -848 R0
SYMATTR InstName C1
SYMATTR Value 660p
SYMBOL diode -224 -752 R90
WINDOW 0 0 32 VBottom 2
WINDOW 3 32 32 VTop 2
SYMATTR InstName D1
SYMATTR Value 1N4148
SYMBOL res -352 -736 R0
SYMATTR InstName R1
SYMATTR Value 100k
SYMBOL res -80 -752 R90
WINDOW 0 7 56 VBottom 2
WINDOW 3 25 56 VTop 2
SYMATTR InstName R2
SYMATTR Value 20k
SYMBOL MDB_sym\\AND2s -288 -864 R0
SYMATTR InstName U10
TEXT -632 120 Left 2 !.tran 20m
TEXT -336 -968 Left 2 !.param vpwr$_digital=5
