Version 4
SHEET 1 880 680
WIRE 240 16 192 16
WIRE 304 16 240 16
WIRE 240 48 192 48
WIRE 304 48 240 48
FLAG 240 48 gen
FLAG 240 16 out
SYMBOL digital_noise_gen_hierarch 144 16 R0
SYMATTR InstName X1
TEXT 110 174 Left 2 !.tran 8m
TEXT 88 328 Left 2 !.param vpwr$_digital=5
TEXT 88 272 Left 2 !.lib cd4000.lib
