Version 4
SHEET 1 3300 1560
WIRE 1584 -336 1552 -336
WIRE 2000 -336 1584 -336
WIRE 1600 -304 1584 -304
WIRE 1968 -304 1600 -304
WIRE 1552 -192 1552 -336
WIRE 1680 -192 1552 -192
WIRE 1744 -176 1728 -176
WIRE 1584 -160 1584 -304
WIRE 1680 -160 1584 -160
WIRE 1552 -112 1552 -192
WIRE 1680 -112 1552 -112
WIRE 1744 -112 1744 -176
WIRE 1760 -112 1744 -112
WIRE 1760 -96 1728 -96
WIRE 1840 -96 1808 -96
WIRE 1872 -96 1840 -96
WIRE 1936 -96 1920 -96
WIRE 2000 -96 2000 -336
WIRE 2000 -96 1936 -96
WIRE 2032 -96 2000 -96
WIRE 1680 -80 1520 -80
WIRE 1760 -80 1744 -80
WIRE 1920 -80 1920 -96
WIRE 1584 -32 1584 -160
WIRE 1680 -32 1584 -32
WIRE 1872 -32 1872 -96
WIRE 1888 -32 1872 -32
WIRE 1744 -16 1744 -80
WIRE 1744 -16 1728 -16
WIRE 1520 0 1520 -80
WIRE 1616 0 1520 0
WIRE 1664 0 1648 0
WIRE 1680 0 1664 0
WIRE 2144 32 2096 32
WIRE 2176 32 2144 32
WIRE 2096 64 2096 32
WIRE 1584 80 1584 -32
WIRE 1680 80 1584 80
WIRE 1744 96 1728 96
WIRE 1552 112 1552 -112
WIRE 1648 112 1552 112
WIRE 1520 160 1520 0
WIRE 1680 160 1520 160
WIRE 1744 160 1744 96
WIRE 1760 160 1744 160
WIRE 2096 160 2096 144
WIRE 1760 176 1728 176
WIRE 1840 176 1808 176
WIRE 1872 176 1840 176
WIRE 1552 192 1552 112
WIRE 1616 192 1552 192
WIRE 1648 192 1616 192
WIRE 1760 192 1744 192
WIRE 1936 224 1920 224
WIRE 1968 224 1968 -304
WIRE 1968 224 1936 224
WIRE 1584 240 1584 80
WIRE 1616 240 1584 240
WIRE 1680 240 1616 240
WIRE 1920 240 1920 224
WIRE 1744 256 1744 192
WIRE 1744 256 1728 256
WIRE 1408 272 1392 272
WIRE 1520 272 1520 160
WIRE 1520 272 1408 272
WIRE 1648 272 1520 272
WIRE 624 288 576 288
WIRE 656 288 624 288
WIRE 784 288 736 288
WIRE 816 288 784 288
WIRE 1392 288 1392 272
WIRE 1872 288 1872 176
WIRE 1888 288 1872 288
WIRE 960 304 880 304
WIRE 576 320 576 288
WIRE 736 320 736 288
WIRE 880 320 880 304
WIRE 960 320 960 304
WIRE 1392 384 1392 368
WIRE 576 416 576 400
WIRE 736 416 736 400
WIRE 880 416 880 400
WIRE 960 416 960 400
WIRE 1472 512 1440 512
WIRE 1488 512 1472 512
WIRE 1600 512 1536 512
WIRE 1648 512 1600 512
WIRE 1664 512 1648 512
WIRE 1776 512 1744 512
WIRE 1792 512 1776 512
WIRE 1664 544 1632 544
WIRE 1600 576 1600 512
WIRE 1664 576 1600 576
WIRE 1776 576 1744 576
WIRE 1792 576 1776 576
WIRE 1568 592 1536 592
WIRE 1392 640 1360 640
WIRE 1440 640 1392 640
WIRE 1568 656 1568 592
WIRE 1568 656 1536 656
WIRE 1600 656 1568 656
WIRE 1648 656 1600 656
WIRE 1664 656 1648 656
WIRE 1776 656 1744 656
WIRE 1792 656 1776 656
WIRE 1392 672 1360 672
WIRE 1440 672 1392 672
WIRE 1632 688 1632 544
WIRE 1664 688 1632 688
WIRE 1392 704 1360 704
WIRE 1408 704 1392 704
WIRE 1568 720 1568 656
WIRE 1568 720 1536 720
WIRE 1600 720 1600 656
WIRE 1664 720 1600 720
WIRE 1776 720 1744 720
WIRE 1792 720 1776 720
WIRE 1392 736 1360 736
WIRE 1408 736 1392 736
WIRE 1472 800 1440 800
WIRE 1488 800 1472 800
WIRE 1600 800 1536 800
WIRE 1648 800 1600 800
WIRE 1664 800 1648 800
WIRE 1776 800 1744 800
WIRE 1792 800 1776 800
WIRE 1632 832 1632 688
WIRE 1664 832 1632 832
WIRE 1600 864 1600 800
WIRE 1664 864 1600 864
WIRE 1776 864 1744 864
WIRE 1792 864 1776 864
WIRE 1280 928 1232 928
WIRE 1312 928 1280 928
WIRE 1472 944 1440 944
WIRE 1488 944 1472 944
WIRE 1600 944 1536 944
WIRE 1648 944 1600 944
WIRE 1664 944 1648 944
WIRE 1776 944 1744 944
WIRE 1792 944 1776 944
WIRE 1232 960 1232 928
WIRE 1632 976 1632 832
WIRE 1664 976 1632 976
WIRE 1600 1008 1600 944
WIRE 1664 1008 1600 1008
WIRE 1776 1008 1744 1008
WIRE 1792 1008 1776 1008
WIRE 1232 1056 1232 1040
WIRE 1632 1056 1632 976
WIRE 1632 1072 1632 1056
WIRE 1568 1216 1552 1216
WIRE 1600 1216 1568 1216
WIRE 1760 1216 1712 1216
WIRE 1776 1216 1760 1216
WIRE 1568 1248 1552 1248
WIRE 1600 1248 1568 1248
WIRE 1760 1248 1712 1248
WIRE 1776 1248 1760 1248
WIRE 1872 1248 1856 1248
WIRE 1904 1248 1872 1248
WIRE 2064 1248 2016 1248
WIRE 2080 1248 2064 1248
WIRE 1568 1280 1552 1280
WIRE 1600 1280 1568 1280
WIRE 1760 1280 1712 1280
WIRE 1776 1280 1760 1280
WIRE 1872 1280 1856 1280
WIRE 1904 1280 1872 1280
WIRE 2064 1280 2016 1280
WIRE 2080 1280 2064 1280
WIRE 1568 1312 1552 1312
WIRE 1600 1312 1568 1312
WIRE 1760 1312 1712 1312
WIRE 1776 1312 1760 1312
WIRE 1872 1312 1856 1312
WIRE 1904 1312 1872 1312
WIRE 2064 1312 2016 1312
WIRE 2080 1312 2064 1312
WIRE 1568 1344 1552 1344
WIRE 1600 1344 1568 1344
WIRE 1760 1344 1712 1344
WIRE 1776 1344 1760 1344
WIRE 1872 1344 1856 1344
WIRE 1904 1344 1872 1344
WIRE 2064 1344 2016 1344
WIRE 2080 1344 2064 1344
FLAG 1840 -96 y1
FLAG 1600 -304 y0~
FLAG 1584 -336 y1~
FLAG 1408 272 x
FLAG 1664 0 _x
FLAG 1840 176 y0
FLAG 2032 -96 z
FLAG 1392 384 0
FLAG 1568 1344 clk
FLAG 1760 1344 ...clk...
FLAG 1760 1248 ...Tc...
FLAG 1760 1216 ...Td...
FLAG 1936 -96 y1~
FLAG 1936 224 y0~
FLAG 1920 0 0
FLAG 1920 320 0
FLAG 736 416 0
FLAG 576 416 0
FLAG 624 288 T1_ns
FLAG 784 288 T0_ns
FLAG 880 416 0
FLAG 960 416 0
FLAG 1568 1312 Ta
FLAG 1760 1312 ...Ta...
FLAG 1760 1280 ...Tb...
FLAG 1616 192 y1~
FLAG 1616 240 y0~
FLAG 1648 512 Ta
FLAG 1648 656 Tb
FLAG 1648 800 Tc
FLAG 1648 944 Td
FLAG 1776 512 A+
FLAG 1776 656 B+
FLAG 1776 800 C+
FLAG 1776 944 D+
FLAG 1632 1056 clk
FLAG 1776 576 _A+
FLAG 1776 720 _B+
FLAG 1776 864 _C+
FLAG 1776 1008 _D+
FLAG 1472 512 D+
FLAG 1472 800 _D+
FLAG 1472 944 _B+
FLAG 1568 1280 Tb
FLAG 1568 1248 Tc
FLAG 1568 1216 Td
FLAG 2064 1344 ...A...
FLAG 2064 1248 ...D...
FLAG 2064 1312 ...B...
FLAG 2064 1280 ...C...
FLAG 1872 1344 A+
FLAG 1872 1312 B+
FLAG 1872 1280 C+
FLAG 1872 1248 D+
FLAG 1232 1056 0
FLAG 1280 928 clk
FLAG 2096 160 0
FLAG 2144 32 x
FLAG 1392 640 A+
FLAG 1392 672 C+
FLAG 1344 528 0
FLAG 1344 560 0
FLAG 1392 704 A+
FLAG 1392 736 C+
SYMBOL MDB_sym\\AND2s 1696 -176 R0
SYMATTR Value TD=0n
SYMATTR InstName U1
SYMBOL MDB_sym\\OR3s 1776 -96 R0
SYMATTR Value TD=0n
SYMATTR InstName U4
SYMBOL MDB_sym\\AND2s 1696 -96 R0
SYMATTR Value TD=0n
SYMATTR InstName U2
SYMBOL MDB_sym\\inv4 1600 -64 R0
SYMATTR InstName U7
SYMBOL source-V 1392 272 R0
WINDOW 123 0 0 Left 2
WINDOW 39 0 0 Left 2
WINDOW 0 34 78 Left 2
WINDOW 3 554 109 Right 2
SYMATTR InstName V1
SYMATTR Value PULSE(0 5 {init_delay} 10p 10p {max(T0,T1)} {2*max(T0,T1)})
SYMBOL EIT_Digital\\probe_dig 1600 1360 M180
SYMATTR Value T=0
SYMATTR InstName U9
SYMBOL EIT_Digital\\probe_dig 1600 1328 M180
SYMATTR Value T=1
SYMATTR InstName U10
SYMBOL bv 1920 224 R0
WINDOW 0 -54 87 Left 2
WINDOW 3 -1247 -556 Left 2
SYMATTR InstName B0
SYMATTR Value V=if( T0+.5, delay(V(y0) , T0+1s*(inv(T0+.5))),  V(y0))     ;  = B0
SYMBOL source-V 576 304 R0
WINDOW 123 0 0 Left 2
WINDOW 39 0 0 Left 2
SYMATTR InstName V2
SYMATTR Value {T1*1e9}
SYMBOL source-V 736 304 R0
WINDOW 123 0 0 Left 2
WINDOW 39 0 0 Left 2
SYMATTR InstName V3
SYMATTR Value {T0*1e9}
SYMBOL bv 1920 -96 R0
WINDOW 0 -54 87 Left 2
WINDOW 3 -1246 -214 Left 2
SYMATTR InstName B1
SYMATTR Value V=if( T1+.5, delay(V(y1) , T1+1s*(inv(T1+.5))),  V(y1))     ;  = B1
SYMBOL source-V 880 304 R0
WINDOW 123 0 0 Left 2
WINDOW 39 0 0 Left 2
WINDOW 3 -108 161 Left 2
SYMATTR Value SINE(0 1 {1/(Tcom/0.50)})
SYMATTR InstName V4
SYMBOL res 944 304 R0
SYMATTR InstName R1
SYMATTR Value 1
SYMBOL EIT_Digital\\probe_dig 1600 1200 R0
SYMATTR Value T=4
SYMATTR InstName U8
SYMBOL EIT_Digital\\probe_dig 1600 1264 R0
SYMATTR Value T=2
SYMATTR InstName U12
SYMBOL EIT_Digital\\probe_dig 1600 1232 R0
SYMATTR Value T=3
SYMATTR InstName U15
SYMBOL MDB_sym\\AND2s 1696 -16 R0
SYMATTR Value TD=0n
SYMATTR InstName U3
SYMBOL MDB_sym\\AND2s 1696 96 R0
SYMATTR Value TD=0n
SYMATTR InstName U5
SYMBOL MDB_sym\\OR3s 1776 176 R0
SYMATTR Value TD=0n
SYMATTR InstName U6
SYMBOL MDB_sym\\AND2s 1696 176 R0
SYMATTR Value TD=0n
SYMATTR InstName U13
SYMBOL MDB_sym\\AND2s 1696 256 R0
SYMATTR Value TD=0n
SYMATTR InstName U14
SYMBOL MDB_sym\\inv4 1632 48 R0
SYMATTR InstName U16
SYMBOL MDB_sym\\inv4 1632 128 R0
SYMATTR InstName U17
SYMBOL MDB_sym\\inv4 1632 208 R0
SYMATTR InstName U18
SYMBOL MDB_sym\\JKFFs 1712 544 R0
SYMATTR InstName A
SYMBOL MDB_sym\\JKFFs 1712 688 R0
SYMATTR InstName B
SYMBOL MDB_sym\\JKFFs 1712 832 R0
SYMATTR InstName C
SYMBOL MDB_sym\\JKFFs 1712 976 R0
SYMATTR InstName D
SYMBOL EIT_Digital\\probe_dig 1904 1232 R0
SYMATTR Value T=5
SYMATTR InstName U11
SYMBOL EIT_Digital\\probe_dig 1904 1264 R0
SYMATTR Value T=6
SYMATTR InstName U24
SYMBOL EIT_Digital\\probe_dig 1904 1328 M180
SYMATTR Value T=7
SYMATTR InstName U26
SYMBOL EIT_Digital\\probe_dig 1904 1360 M180
SYMATTR Value T=8
SYMATTR InstName U27
SYMBOL source-V 1232 944 R0
WINDOW 123 0 0 Left 2
WINDOW 39 0 0 Left 2
WINDOW 3 -84 154 Left 2
SYMATTR Value PULSE(0 5 {init_delay} 10p 10p {1/(2*fclk)} {1/fclk})
SYMATTR InstName V5
SYMBOL MDB_sym\\OR2s 1360 544 R0
SYMATTR InstName U19
SYMBOL MDB_sym\\AND2s 1456 656 R0
SYMATTR Value TD=0n
SYMATTR InstName U29
SYMBOL MDB_sym\\inv4 1392 640 R0
SYMATTR InstName U30
SYMBOL MDB_sym\\inv4 1392 672 R0
SYMATTR InstName U31
SYMBOL MDB_sym\\OR2s 1456 720 R0
SYMATTR InstName U32
SYMBOL EIT_Digital\\level-high 1488 592 R0
SYMATTR InstName U33
SYMBOL MDB_sym\\jumper 1520 448 R0
SYMATTR InstName X1
SYMBOL MDB_sym\\jumper 1520 528 R0
SYMATTR InstName X2
SYMBOL MDB_sym\\jumper 1520 736 R0
SYMATTR InstName X3
SYMBOL MDB_sym\\jumper 1520 880 R0
SYMATTR InstName X4
TEXT 1504 312 Left 2 ;ideales Verknüpfungsnetz
TEXT 1496 -256 Left 2 ;VN
TEXT 624 208 Left 2 !.tran {10/fclk + init_delay}
TEXT 1848 -208 Left 2 !.ic V(y1)=5\n.ic V(y0)=5
TEXT 696 688 Left 2 !.MEAS TRAN T1_ns FIND V(T1calc) AT=1u\n.MEAS TRAN T0_ns FIND V(T0calc) AT=1u
TEXT 664 -248 Left 2 ;Digitale Systeme | Skript S.75   Prof. Schäfer\nAufbrechen ungewollter Zyklen \n12-02-2015   MDB
TEXT 616 -112 Left 2 !.param Tcom = 100ns   ;  Common Delay\n.param SEL=1\n \n; initial delay for transition x: 0 -> 1\n.param init_delay=2u   \n.param fclk = 1meg\n.param vpwr$_digital = 5V\n.options plotwinsize=0
TEXT 1152 144 Right 2 !.param T1 = table(SEL,    1,100n,   2,500n,   3,100n,   4,100n)
TEXT 720 600 Left 2 !.param limDel = 100p
TEXT 720 520 Left 2 ;Für Autoskalierung mit 1V Abstand\nzur Oberkante der Plots
TEXT 1120 112 Right 2 !.param T0 = table(SEL,    1,500n,   2,100n,   3,100n,   4,0)
TEXT 536 832 Left 2 ;Ein Lauf, der in verschiedene Endzustände münden kann oder zur dauernden \nInstabilität führt,  heißt kritischer Lauf.  Abhilfe:     \nUmcodierung der Zustände  Zustandsdiagramm: nur Einkomponentenübergänge: \n \nÜbergangstabelle (...)\n \nr1(i+1) = (_x ^ r0) v (x ^ r1) v (r1 ^ r0)\nr0(i+1) = (_x ^ r0) v (x ^ _r1) v (_r1 ^ r0)
TEXT 784 1032 Left 2 ;HAZARD- \nTerm
TEXT 896 216 Left 2 ;.step param SEL list 1 2 3
LINE Normal 1161 128 623 128
RECTANGLE Normal 1824 336 1488 -272 2
RECTANGLE Normal 1144 -152 632 -280 2
RECTANGLE Normal 1136 -160 624 -288
RECTANGLE Normal 1312 656 704 496 2
RECTANGLE Normal 1162 167 838 89
RECTANGLE Normal 1002 167 917 89
RECTANGLE Normal 1162 167 1078 89
RECTANGLE Normal 917 167 624 89
RECTANGLE Normal 872 1072 765 955 2
