Version 4
SHEET 1 1008 680
WIRE -560 -1136 -592 -1136
WIRE -400 -1136 -432 -1136
WIRE -400 -1104 -432 -1104
WIRE -560 -1088 -592 -1088
WIRE -592 -1056 -592 -1088
WIRE -560 -1056 -592 -1056
WIRE -560 -1024 -592 -1024
WIRE -560 -976 -592 -976
WIRE -144 -864 -576 -864
WIRE -128 -864 -144 -864
WIRE -176 -832 -576 -832
WIRE -160 -832 -176 -832
WIRE 112 -832 80 -832
WIRE 256 -832 224 -832
WIRE -512 -800 -576 -800
WIRE -208 -800 -480 -800
WIRE -192 -800 -208 -800
WIRE 112 -800 80 -800
WIRE 256 -800 224 -800
WIRE 112 -768 80 -768
WIRE 256 -768 224 -768
WIRE 112 -736 80 -736
WIRE 256 -736 224 -736
WIRE -400 -720 -448 -720
WIRE -256 -720 -272 -720
WIRE -192 -720 -192 -800
WIRE -192 -720 -256 -720
WIRE 112 -704 80 -704
WIRE 256 -704 224 -704
WIRE -512 -672 -512 -800
WIRE -400 -672 -512 -672
WIRE -448 -608 -448 -720
WIRE -224 -608 -448 -608
WIRE -128 -608 -128 -864
WIRE -64 -608 -128 -608
WIRE 0 -592 -16 -592
WIRE -192 -576 -192 -720
WIRE -112 -576 -192 -576
WIRE -64 -576 -80 -576
WIRE -480 -528 -480 -800
WIRE -448 -528 -480 -528
WIRE -400 -528 -416 -528
WIRE -256 -528 -272 -528
WIRE -224 -528 -224 -608
WIRE -224 -528 -256 -528
WIRE -112 -528 -224 -528
WIRE -64 -528 -80 -528
WIRE 0 -528 0 -592
WIRE 32 -528 0 -528
WIRE -192 -512 -192 -576
WIRE -112 -512 -192 -512
WIRE -64 -512 -80 -512
WIRE 32 -512 -16 -512
WIRE 96 -512 80 -512
WIRE 112 -512 96 -512
WIRE 256 -512 224 -512
WIRE -160 -496 -160 -832
WIRE -64 -496 -160 -496
WIRE 32 -496 0 -496
WIRE -512 -480 -512 -672
WIRE -400 -480 -512 -480
WIRE -224 -448 -224 -528
WIRE -64 -448 -224 -448
WIRE -160 -432 -160 -496
WIRE -64 -432 -160 -432
WIRE 0 -432 0 -496
WIRE 0 -432 -16 -432
WIRE -128 -416 -128 -608
WIRE -64 -416 -128 -416
WIRE -224 -384 -224 -448
WIRE -192 -384 -192 -512
WIRE -160 -384 -160 -432
WIRE -128 -384 -128 -416
WIRE -528 -368 -560 -368
WIRE -448 -368 -480 -368
WIRE -368 -368 -400 -368
WIRE -560 -320 -560 -368
WIRE -480 -320 -480 -368
WIRE -400 -320 -400 -368
WIRE 80 -288 48 -288
WIRE -560 -224 -560 -240
WIRE -480 -224 -480 -240
WIRE -400 -224 -400 -240
FLAG 80 -288 +5V
FLAG -480 -224 0
FLAG -480 -368 clk
FLAG -592 -1024 clk
FLAG -592 -976 0
FLAG 80 -736 X0
FLAG 80 -768 X1
FLAG 256 -768 X1!
FLAG 80 -800 clk
FLAG 256 -800 clk!
FLAG -560 -224 0
FLAG -560 -368 clk_N
FLAG -576 -800 clk_N
FLAG -256 -720 R1
FLAG -256 -528 R0
FLAG -192 -384 R1
FLAG -224 -384 R0
FLAG 96 -512 Z
FLAG 256 -736 X0!
FLAG 256 -512 Z!
FLAG 80 -832 clk_N
FLAG 256 -832 clk_N!
FLAG -400 -224 0
FLAG -400 -368 state
FLAG -160 -384 X0
FLAG -128 -384 X1
FLAG -576 -832 X0
FLAG -576 -864 X1
FLAG -400 -1136 X0
FLAG -400 -1104 X1
FLAG -144 -864 X1
FLAG -176 -832 X0
FLAG -208 -800 R1
FLAG 80 -704 state
FLAG 256 -704 state!
SYMBOL EIT_Digital\\probe_dig 112 -816 R0
SYMATTR Value T=0
SYMATTR InstName U3
SYMBOL source-V -480 -336 R0
WINDOW 3 -4 150 Left 2
SYMATTR Value PULSE(0 {VDIG} {DELAY} 10n 10n {1/(2*fclk)} {1/fclk})
SYMATTR InstName V2
SYMBOL EIT_Digital\\Bin_up_down_counter -560 -1136 R0
SYMATTR InstName U7
SYMBOL EIT_Digital\\level-high -592 -1088 R0
SYMATTR InstName U9
SYMBOL EIT_Digital\\probe_dig 112 -752 R0
SYMATTR Value T=1
SYMATTR InstName U10
SYMBOL EIT_Digital\\probe_dig 112 -784 R0
SYMATTR Value T=1.5
SYMATTR InstName U11
SYMBOL source-V -560 -336 R0
WINDOW 3 -34 188 Left 2
WINDOW 0 -43 42 VRight 2
SYMATTR Value PULSE(0 {VDIG} {DELAY} 10n 10n {1/(2*N*fclk)} {1/(N*fclk)})
SYMATTR InstName V3
SYMBOL EIT_Digital\\DFF -336 -736 R0
WINDOW 3 -61 105 Invisible 2
SYMATTR InstName R1
SYMBOL EIT_Digital\\DFF -336 -544 R0
WINDOW 3 -61 105 Invisible 2
SYMATTR InstName R0
SYMBOL MDB_sym\\AND2s -48 -592 R0
SYMATTR InstName U6
SYMBOL MDB_sym\\OR3s 48 -512 R0
SYMATTR InstName U16
SYMATTR Description OR-Gate 2 inputs
SYMBOL MDB_sym\\AND3s -48 -512 R0
SYMATTR InstName U19
SYMBOL MDB_sym\\AND3s -48 -432 R0
SYMATTR InstName U20
SYMBOL MDB_sym\\inv4 -464 -592 R0
SYMATTR InstName inv1
SYMBOL EIT_Digital\\level-low -592 -1136 R0
SYMATTR InstName U22
SYMBOL EIT_Digital\\probe_dig 112 -848 R0
SYMATTR Value T=0.2
SYMATTR InstName U23
SYMBOL EIT_Digital\\probe_dig 112 -528 R0
SYMATTR Value T=1
SYMATTR InstName U26
SYMBOL bv -400 -336 R0
WINDOW 3 31 112 Left 2
SYMATTR Value V=(V(X0)+2*V(X1))/3
SYMATTR InstName B2
SYMBOL source-Vmarker 48 -288 R0
SYMATTR InstName U5
SYMBOL MDB_sym\\inv4 -128 -640 R0
SYMATTR InstName U1
SYMBOL MDB_sym\\inv4 -128 -592 R0
SYMATTR InstName U2
SYMBOL MDB_sym\\inv4 -128 -576 R0
SYMATTR InstName U8
SYMBOL EIT_Digital\\probe_dig 112 -720 R0
SYMATTR Value T=2
SYMATTR InstName U4
TEXT -288 -1168 Left 2 !.tran {8*1/fclk+DELAY} startup
TEXT -288 -968 Left 2 !.lib cd4000.lib
TEXT -288 -1128 Left 2 !.param fclk = 1k\n.param N = 32\n.param DELAY = 0n\n.param vpwr$_digital=1V\n.param VDIG = 1V
TEXT -632 -1344 Left 2 ;************************************************************************************************\nDigitale Systeme | Klausur WS13/14   Prof. Schäfer\n05-02-2015   MDB\n************************************************************************************************
TEXT 88 -1176 Left 2 ;Musterlösung:\nR1+=R0\nR0+=_R1\n \nAusgangsnetz:\n(D1 ^ _R1) v\n(_R0 ^ _R1 ^ D0) v \n(R0 ^ D1 ^ _D0)
TEXT 312 -1232 Left 2 ;Korrektur Herr Schäfer\n07-02-2015\nMusterlösung: \nR1+=R0\nR0+=_R1\n \nAusgangsnetz:\n(D1 ^ _R1) v\n(_R0 ^ _R1 ^ D0) v \n(R0 ^ D1 ^ D0)
