Version 4
SHEET 1 1308 680
WIRE 544 -1200 512 -1200
WIRE 720 -1200 656 -1200
WIRE 544 -1168 512 -1168
WIRE 720 -1168 656 -1168
WIRE 544 -1136 512 -1136
WIRE 720 -1136 656 -1136
WIRE 544 -1104 512 -1104
WIRE 720 -1104 656 -1104
WIRE 544 -1072 512 -1072
WIRE 720 -1072 656 -1072
WIRE -240 -1056 -272 -1056
WIRE -112 -1056 -144 -1056
WIRE 544 -1040 512 -1040
WIRE 720 -1040 656 -1040
WIRE -272 -1008 -272 -1056
WIRE -144 -1008 -144 -1056
WIRE 544 -1008 512 -1008
WIRE 720 -1008 656 -1008
WIRE 544 -976 512 -976
WIRE 720 -976 656 -976
WIRE 544 -944 512 -944
WIRE 720 -944 656 -944
WIRE -272 -912 -272 -928
WIRE -144 -912 -144 -928
WIRE 544 -912 512 -912
WIRE 720 -912 656 -912
WIRE 544 -880 512 -880
WIRE 720 -880 656 -880
WIRE 256 -800 176 -800
WIRE -32 -784 -80 -784
WIRE 256 -768 192 -768
WIRE -80 -736 -80 -784
WIRE -80 -736 -112 -736
WIRE -64 -736 -80 -736
WIRE -64 -704 -112 -704
WIRE 144 -704 144 -752
WIRE 432 -704 144 -704
WIRE 816 -704 784 -704
WIRE 928 -704 896 -704
WIRE -64 -672 -112 -672
WIRE 192 -672 192 -768
WIRE 256 -672 192 -672
WIRE 176 -656 176 -800
WIRE 256 -656 176 -656
WIRE 320 -656 304 -656
WIRE 816 -656 800 -656
WIRE -240 -640 -272 -640
WIRE -64 -640 -112 -640
WIRE 160 -640 160 -752
WIRE 256 -640 160 -640
WIRE 320 -608 320 -656
WIRE 352 -608 320 -608
WIRE 176 -592 176 -656
WIRE 256 -592 176 -592
WIRE 432 -592 400 -592
WIRE 816 -592 784 -592
WIRE 928 -592 896 -592
WIRE 160 -576 160 -640
WIRE 256 -576 160 -576
WIRE 352 -576 304 -576
WIRE 144 -560 144 -704
WIRE 256 -560 144 -560
WIRE 800 -544 800 -656
WIRE 800 -544 784 -544
WIRE 816 -544 800 -544
WIRE 192 -512 192 -672
WIRE 256 -512 192 -512
WIRE 176 -496 176 -592
WIRE 224 -496 176 -496
WIRE 352 -496 304 -496
WIRE 144 -480 144 -560
WIRE 224 -480 144 -480
WIRE 352 -480 320 -480
WIRE 432 -480 400 -480
WIRE -64 -464 -112 -464
WIRE -48 -464 -64 -464
WIRE 48 -464 0 -464
WIRE 352 -464 336 -464
WIRE -64 -432 -112 -432
WIRE -48 -432 -64 -432
WIRE 48 -432 0 -432
WIRE 176 -432 176 -496
WIRE 256 -432 176 -432
WIRE 160 -416 160 -576
WIRE 256 -416 160 -416
WIRE 320 -416 320 -480
WIRE 320 -416 304 -416
WIRE -80 -400 -112 -400
WIRE -64 -400 -80 -400
WIRE -48 -400 -64 -400
WIRE 48 -400 0 -400
WIRE 144 -400 144 -480
WIRE 256 -400 144 -400
WIRE 944 -384 928 -384
WIRE -240 -368 -256 -368
WIRE -64 -368 -112 -368
WIRE -48 -368 -64 -368
WIRE 48 -368 0 -368
WIRE 192 -352 192 -512
WIRE 256 -352 192 -352
WIRE 336 -336 336 -464
WIRE 336 -336 304 -336
WIRE -240 -320 -272 -320
WIRE 160 -320 160 -416
WIRE 256 -320 160 -320
WIRE 160 -288 160 -320
WIRE 432 -288 160 -288
WIRE -272 -272 -272 -320
WIRE -80 -272 -80 -400
WIRE -80 -272 -272 -272
WIRE 32 -240 -16 -240
WIRE 144 -240 144 -400
WIRE 160 -240 160 -288
WIRE 176 -240 176 -432
WIRE 192 -240 192 -352
WIRE 944 -240 928 -240
WIRE -16 -208 -16 -240
FLAG 144 -752 R1
FLAG 160 -752 R0
FLAG 928 -592 R0a
FLAG 928 -704 R1a
FLAG 784 -544 clk
IOPIN 784 -544 In
FLAG -144 -912 0
FLAG -256 -368 clk
FLAG -64 -464 D0
FLAG -64 -432 D1
FLAG -64 -400 D2
FLAG -64 -368 D3
FLAG 512 -912 S
FLAG 512 -944 B
FLAG 512 -976 R0
FLAG 512 -1008 R1
FLAG 720 -912 S_
FLAG 720 -944 B_
FLAG 720 -976 R0_
FLAG 720 -1008 R1_
FLAG 720 -880 clk_
FLAG -272 -912 0
FLAG -128 -1072 PL
FLAG -272 -640 clk
IOPIN -272 -640 In
FLAG -64 -704 clk2k
FLAG -64 -672 clk4k
FLAG -64 -640 clk8k
FLAG -64 -736 clk1k
FLAG -32 -784 CP
FLAG 720 -1104 Z_
FLAG 720 -1168 PL!
FLAG 720 -1136 CP!
FLAG 512 -1104 Z
FLAG 512 -880 clk
FLAG 720 -1200 c0!
FLAG -240 -1056 clk
IOPIN -240 -1056 Out
FLAG 48 -432 B
IOPIN 48 -432 Out
FLAG 48 -464 S
IOPIN 48 -464 Out
FLAG 256 -800 B
IOPIN 256 -800 In
FLAG 256 -768 S
IOPIN 256 -768 In
FLAG 512 -1200 0
FLAG 512 -1168 0
FLAG 512 -1136 0
FLAG 784 -704 R1+a
IOPIN 784 -704 In
FLAG 784 -592 R0+a
IOPIN 784 -592 In
FLAG 512 -1072 R1+
FLAG 512 -1040 R0+
FLAG 720 -1072 R1+_
FLAG 720 -1040 R0+_
FLAG -16 -128 0
FLAG 32 -240 S
IOPIN 32 -240 Out
FLAG 432 -704 R1
FLAG 432 -288 R0
FLAG 432 -592 R1+
FLAG 432 -480 R0+
FLAG 560 -704 R1
FLAG 608 -704 R1a
FLAG 560 -656 R1+
FLAG 560 -608 R0+
FLAG 560 -560 R0
FLAG 608 -560 R0a
FLAG 608 -608 R0+a
IOPIN 608 -608 Out
FLAG 608 -656 R1+a
IOPIN 608 -656 Out
FLAG 560 -384 R1
FLAG 608 -384 R1b
FLAG 560 -336 R1+
FLAG 560 -288 R0+
FLAG 560 -240 R0
FLAG 608 -240 R0b
FLAG 608 -288 R0+b
IOPIN 608 -288 Out
FLAG 608 -336 R1+b
IOPIN 608 -336 Out
FLAG 800 -352 clk
IOPIN 800 -352 In
FLAG 800 -208 clk
IOPIN 800 -208 In
FLAG 944 -384 R1b
FLAG 944 -240 R0b
FLAG 800 -384 R1+b
IOPIN 800 -384 BiDir
FLAG 800 -240 R0+b
IOPIN 800 -240 BiDir
FLAG 560 -512 R1a
FLAG 608 -512 z
FLAG 560 -192 R1b
FLAG 608 -192 z
SYMBOL MDB_sym\\DFFs 880 -720 R0
SYMATTR InstName R1
SYMBOL MDB_sym\\inv2 208 -560 R0
SYMATTR Description Behavioral Inverter
SYMATTR InstName U7
SYMBOL MDB_sym\\inv2 208 -544 R0
SYMATTR Description Behavioral Inverter
SYMATTR InstName U8
SYMBOL MDB_sym\\DFFs 880 -608 R0
SYMATTR InstName R0
SYMBOL source-V -144 -1024 R0
WINDOW 3 -4 150 Left 2
SYMATTR Value PULSE({VDIG} 0 {DELAY} 10n 10n {1/(2*fclk)} {1/fclk})
SYMATTR InstName V1
SYMBOL EIT_Digital\\bin_up_counter -240 -464 R0
SYMATTR InstName U11
SYMBOL EIT_Digital\\level-high -240 -416 R0
SYMATTR InstName U12
SYMBOL EIT_Digital\\probe_dig 544 -896 R0
SYMATTR Value T=0
SYMATTR InstName U13
SYMBOL source-V -272 -1024 R0
WINDOW 3 -2 186 Left 2
SYMATTR Value PULSE({VDIG} 0 {DELAY} 10n 10n {1/(2*fclk)} {1/fclk})
SYMATTR InstName V2
SYMBOL EIT_Digital\\bin_up_counter -240 -736 R0
SYMATTR InstName U14
SYMBOL EIT_Digital\\probe_dig 544 -1024 R0
SYMATTR Value T=5
SYMATTR InstName U16
SYMBOL EIT_Digital\\probe_dig 544 -1088 R0
SYMATTR Value T=7
SYMATTR InstName U17
SYMBOL EIT_Digital\\probe_dig 544 -1056 R0
SYMATTR Value T=6
SYMATTR InstName U18
SYMBOL EIT_Digital\\probe_dig 544 -992 R0
SYMATTR Value T=4
SYMATTR InstName U19
SYMBOL EIT_Digital\\probe_dig 544 -960 R0
SYMATTR Value T=3
SYMATTR InstName U20
SYMBOL EIT_Digital\\probe_dig 544 -928 R0
SYMATTR Value T=2
SYMATTR InstName U21
SYMBOL EIT_Digital\\probe_dig 544 -1120 R0
WINDOW 3 21 15 Left 2
SYMATTR Value T=1
SYMATTR InstName U22
SYMBOL EIT_Digital\\level-low -240 -736 R0
SYMATTR InstName U28
SYMBOL EIT_Digital\\probe_dig 544 -1184 R0
SYMATTR Value T=9
SYMATTR InstName U34
SYMBOL EIT_Digital\\probe_dig 544 -1152 R0
SYMATTR Value T=8
SYMATTR InstName U35
SYMBOL EIT_Digital\\probe_dig 544 -1216 R0
SYMATTR Value T=10
SYMATTR InstName U36
SYMBOL MDB_sym\\jumper -16 -544 R0
SYMATTR InstName X2
SYMBOL MDB_sym\\jumper -16 -496 R0
SYMATTR InstName X3
SYMBOL MDB_sym\\jumper -16 -464 R0
SYMATTR InstName X4
SYMBOL MDB_sym\\jumper -16 -432 R0
SYMATTR InstName X5
SYMBOL EIT_Digital\\level-low -240 -464 R0
SYMATTR InstName U24
SYMBOL EIT_Digital\\level-low -240 -592 R0
SYMATTR InstName U23
SYMBOL EIT_Digital\\level-low -240 -688 R0
SYMATTR InstName U15
SYMBOL MDB_sym\\AND3sRin 272 -656 R0
SYMATTR InstName U1
SYMBOL MDB_sym\\AND3sRin 272 -576 R0
SYMATTR InstName U2
SYMBOL MDB_sym\\AND3sRin 272 -496 R0
SYMATTR InstName U3
SYMBOL MDB_sym\\AND3sRin 272 -416 R0
SYMATTR InstName U4
SYMBOL MDB_sym\\AND2sRin 272 -336 R0
SYMATTR InstName U5
SYMBOL MDB_sym\\OR2sRin 368 -592 R0
SYMATTR InstName U9
SYMBOL MDB_sym\\OR3sRin 368 -480 R0
SYMATTR InstName U10
SYMBOL bv -16 -224 R0
SYMATTR InstName B1
SYMATTR Value V=5*buf(delay(V(clk),600u))
SYMBOL MDB_sym\\jumperSetable 592 -704 R0
WINDOW 0 -7 -32 Invisible 2
WINDOW 3 -7 16 Invisible 2
SYMATTR InstName U6
SYMATTR Value cl={DFF}
SYMBOL MDB_sym\\jumperSetable 592 -656 R0
WINDOW 0 -7 -32 Invisible 2
WINDOW 3 -7 16 Invisible 2
SYMATTR InstName U25
SYMATTR Value cl={DFF}
SYMBOL MDB_sym\\jumperSetable 592 -608 R0
WINDOW 0 -7 -32 Invisible 2
WINDOW 3 -7 16 Invisible 2
SYMATTR InstName U26
SYMATTR Value cl={DFF}
SYMBOL MDB_sym\\jumperSetable 592 -560 R0
WINDOW 0 -7 -32 Invisible 2
WINDOW 3 -7 16 Invisible 2
SYMATTR InstName U27
SYMATTR Value cl={DFF}
SYMBOL MDB_sym\\jumperSetable 592 -384 R0
WINDOW 0 -7 -32 Invisible 2
WINDOW 3 -7 16 Invisible 2
SYMATTR InstName U29
SYMATTR Value cl={TFF}
SYMBOL EIT_Digital\\TFF 864 -416 R0
SYMATTR InstName U33
SYMBOL EIT_Digital\\TFF 864 -272 R0
SYMATTR InstName U37
SYMBOL MDB_sym\\jumperSetable 592 -336 R0
WINDOW 0 -7 -32 Invisible 2
WINDOW 3 -7 16 Invisible 2
SYMATTR InstName U30
SYMATTR Value cl={TFF}
SYMBOL MDB_sym\\jumperSetable 592 -288 R0
WINDOW 0 -7 -32 Invisible 2
WINDOW 3 -7 16 Invisible 2
SYMATTR InstName U31
SYMATTR Value cl={TFF}
SYMBOL MDB_sym\\jumperSetable 592 -240 R0
WINDOW 0 -7 -32 Invisible 2
WINDOW 3 -7 16 Invisible 2
SYMATTR InstName U32
SYMATTR Value cl={TFF}
SYMBOL MDB_sym\\jumperSetable 592 -512 R0
WINDOW 0 -7 -32 Invisible 2
WINDOW 3 -7 16 Invisible 2
SYMATTR InstName U38
SYMATTR Value cl={DFF}
SYMBOL MDB_sym\\jumperSetable 592 -192 R0
WINDOW 0 -7 -32 Invisible 2
WINDOW 3 -7 16 Invisible 2
SYMATTR InstName U39
SYMATTR Value cl={TFF}
TEXT 16 -976 Left 2 !.tran {8*1/fclk+DELAY} startup
TEXT 16 -928 Left 2 !.lib cd4000.lib
TEXT 16 -1176 Left 2 !.param fclk = 1k\n.param N = 32\n.param NN = 8\n.param DELAY = 0\n.param vpwr$_digital=5V\n.param VDIG = 5V
TEXT 312 -216 Left 2 !.param sel_ff=1\n+ DFF = {FF}\n+ TFF = {1-FF}
TEXT 240 -80 Left 2 !.step param FF list 0 1
TEXT 864 -496 Left 2 ;passt nicht!
TEXT 864 -136 Left 2 ;passt!
RECTANGLE Normal 992 -480 496 -768 2
RECTANGLE Normal 992 -480 496 -768 2
RECTANGLE Normal 992 -112 496 -448 2
