Version 4
SHEET 1 880 680
WIRE 288 -112 128 -112
WIRE 608 -112 288 -112
WIRE 688 -112 608 -112
WIRE 128 -96 128 -112
WIRE 608 -96 608 -112
WIRE 288 -80 288 -112
WIRE 544 -48 448 -48
WIRE 656 0 608 0
WIRE 672 0 656 0
WIRE 448 16 448 -48
WIRE 128 32 128 -16
WIRE 176 32 128 32
WIRE 368 32 176 32
WIRE 672 32 672 0
WIRE 288 80 288 0
WIRE 320 80 288 80
WIRE 368 80 320 80
WIRE 448 112 448 96
WIRE 128 128 128 32
WIRE 288 128 288 80
WIRE 352 176 192 176
WIRE 640 176 352 176
WIRE 672 176 672 112
WIRE 672 176 640 176
WIRE 688 176 672 176
WIRE 768 176 752 176
WIRE -80 208 -112 208
WIRE -32 208 -80 208
WIRE -112 224 -112 208
WIRE 288 224 256 224
WIRE 288 240 288 224
WIRE 768 240 768 176
WIRE -32 272 -32 208
WIRE -32 272 -48 272
WIRE 672 272 672 176
WIRE -32 320 -32 272
WIRE 128 336 128 224
WIRE 160 336 128 336
WIRE 288 336 288 320
WIRE 288 336 160 336
WIRE 128 352 128 336
WIRE 768 368 768 320
WIRE 672 416 672 352
WIRE -112 432 -112 320
WIRE -32 432 -32 400
WIRE 128 464 128 432
FLAG 128 464 0
FLAG 448 112 0
FLAG -112 432 0
FLAG -32 432 0
FLAG -80 208 tst
FLAG 640 176 ref
FLAG 176 32 c1
FLAG 320 80 c2
FLAG 160 336 e1
FLAG 256 224 e2
FLAG 768 368 0
FLAG 656 0 out
FLAG 672 416 0
SYMBOL EIT_Semiconductors\\npn 192 128 M0
SYMATTR InstName Q1
SYMATTR Value CA3046
SYMBOL EIT_Semiconductors\\npn 352 128 M0
WINDOW 3 -124 82 Left 2
SYMATTR Value CA3046 {m}
SYMATTR InstName Q2
SYMBOL res 112 336 R0
SYMATTR InstName R1
SYMATTR Value 8.3k
SYMBOL res 272 224 R0
SYMATTR InstName R2
SYMATTR Value 2.883k
SYMBOL res 112 -112 R0
SYMATTR InstName R3
SYMATTR Value 1k
SYMBOL res 272 -96 R0
SYMATTR InstName R4
SYMATTR Value {k*1k}
SYMBOL source-Vmarker 688 -112 M0
SYMATTR Value V=7V
SYMATTR InstName U1
SYMBOL crtl-V-V 448 0 R0
SYMATTR InstName E1
SYMATTR Value 100000
SYMBOL EIT_Semiconductors\\npn -48 224 M0
SYMATTR InstName Q3
SYMATTR Value CA3046
SYMBOL source-I -32 320 R0
SYMATTR InstName I1
SYMATTR Value 50µ
SYMBOL res 656 16 R0
SYMATTR InstName R5
SYMATTR Value 3k
SYMBOL source-V 768 224 R0
SYMATTR InstName V1
SYMATTR Value 1.2
SYMBOL diode 752 160 R90
WINDOW 0 0 32 VBottom 2
WINDOW 3 32 32 VTop 2
SYMATTR InstName D1
SYMBOL res 656 256 R0
SYMATTR InstName R6
SYMATTR Value 1k
SYMBOL EIT_Semiconductors\\npn 544 -96 R0
SYMATTR InstName Q4
SYMATTR Value CA3046 100
TEXT 168 -144 Left 2 ;k=2, m=8
TEXT 272 -160 Left 2 !.param m=8 k=2
TEXT -200 488 Left 2 !;op
TEXT -104 128 Left 2 !.dc temp 0 120 5
