Version 4
SHEET 1 880 680
WIRE 288 -112 128 -112
WIRE 512 -112 288 -112
WIRE 544 -112 512 -112
WIRE 128 -96 128 -112
WIRE 288 -80 288 -112
WIRE 512 -16 512 -32
WIRE 576 -16 512 -16
WIRE 656 -16 576 -16
WIRE 496 16 400 16
WIRE 656 16 656 -16
WIRE 128 32 128 -16
WIRE 176 32 128 32
WIRE 368 32 176 32
WIRE 576 64 576 -16
WIRE 576 64 560 64
WIRE 592 64 576 64
WIRE 288 80 288 0
WIRE 320 80 288 80
WIRE 400 80 400 16
WIRE 400 80 320 80
WIRE 128 128 128 32
WIRE 288 128 288 80
WIRE 656 160 656 112
WIRE 352 176 192 176
WIRE 480 176 352 176
WIRE 528 176 480 176
WIRE -80 208 -112 208
WIRE -32 208 -80 208
WIRE -112 224 -112 208
WIRE 288 224 256 224
WIRE 288 240 288 224
WIRE 496 240 496 112
WIRE 496 240 288 240
WIRE 528 240 528 176
WIRE -32 272 -32 208
WIRE -32 272 -48 272
WIRE -32 320 -32 272
WIRE 128 336 128 224
WIRE 160 336 128 336
WIRE 288 336 288 320
WIRE 288 336 160 336
WIRE 128 352 128 336
WIRE 528 368 528 320
WIRE -112 432 -112 320
WIRE -32 432 -32 400
WIRE 128 464 128 432
FLAG 128 464 0
FLAG -112 432 0
FLAG -32 432 0
FLAG -80 208 tst
FLAG 480 176 ref
FLAG 176 32 A
FLAG 320 80 b
FLAG 160 336 e1
FLAG 256 224 e2
FLAG 528 368 0
FLAG 656 160 0
SYMBOL EIT_Semiconductors\\npn 192 128 M0
SYMATTR InstName QA
SYMATTR Value CA3046
SYMBOL EIT_Semiconductors\\npn 352 128 M0
WINDOW 3 -124 82 Left 2
SYMATTR Value CA3046 {m}
SYMATTR InstName QB
SYMBOL res 112 336 R0
SYMATTR InstName R1
SYMATTR Value 8.3k
SYMBOL res 272 224 R0
SYMATTR InstName R2
SYMATTR Value 2.883k
SYMBOL res 112 -112 R0
SYMATTR InstName R3
SYMATTR Value {ra}
SYMBOL res 272 -96 R0
SYMATTR InstName R4
SYMATTR Value {k*ra}
SYMBOL source-Vmarker 544 -112 M0
WINDOW 3 -51 0 Center 2
SYMATTR InstName U1
SYMBOL EIT_Semiconductors\\npn -48 224 M0
SYMATTR InstName Q3
SYMATTR Value CA3046
SYMBOL source-I -32 320 R0
SYMATTR InstName I1
SYMATTR Value 50µ
SYMBOL source-V 528 224 R0
SYMATTR InstName V1
SYMATTR Value 1.2
SYMBOL EIT_Semiconductors\\npn 560 16 M0
SYMATTR InstName QA1
SYMATTR Value CA3046
SYMBOL EIT_Semiconductors\\npn 592 16 R0
SYMATTR InstName QA2
SYMATTR Value CA3046
SYMBOL res 496 -128 R0
SYMATTR InstName R5
SYMATTR Value 1meg
TEXT 168 -144 Left 2 ;k=2, m=8
TEXT 272 -160 Left 2 !.param m=8 k=2 ra=10k
TEXT -200 488 Left 2 !;op
TEXT -104 128 Left 2 !.dc v1 0 1.5 10m
TEXT -136 -136 Left 2 !.step param ra 1k 20k 1k
