Version 4
SHEET 1 1280 760
WIRE -112 -176 -272 -176
WIRE 0 -176 -32 -176
WIRE 64 -176 0 -176
WIRE 432 -176 64 -176
WIRE 768 -176 512 -176
WIRE 1056 -144 656 -144
WIRE -272 -128 -272 -176
WIRE -112 -112 -160 -112
WIRE 0 -112 0 -176
WIRE 0 -112 -32 -112
WIRE 352 -112 144 -112
WIRE 720 -112 352 -112
WIRE 816 -112 720 -112
WIRE 912 -112 816 -112
WIRE 992 -112 912 -112
WIRE 1136 -112 992 -112
WIRE -272 -96 -272 -128
WIRE -160 -80 -160 -112
WIRE 144 -80 144 -112
WIRE 656 -80 656 -144
WIRE 656 -80 448 -80
WIRE 816 -16 816 -32
WIRE 912 -16 912 -32
WIRE 992 -16 992 -32
WIRE 1136 -16 1136 -32
WIRE 720 0 720 -112
WIRE -272 16 -272 -16
WIRE 448 16 448 -80
WIRE 448 16 416 16
WIRE 560 16 528 16
WIRE 608 16 560 16
WIRE -160 32 -160 0
WIRE 144 32 144 0
WIRE 976 32 880 32
WIRE 1056 32 1056 -144
WIRE 1056 32 976 32
WIRE 1072 32 1056 32
WIRE 608 48 608 16
WIRE 656 48 608 48
WIRE 608 64 608 48
WIRE 144 112 80 112
WIRE 208 112 144 112
WIRE 528 112 528 96
WIRE 544 112 528 112
WIRE 816 112 816 80
WIRE 832 112 816 112
WIRE 848 112 832 112
WIRE 992 112 992 80
WIRE 1008 112 992 112
WIRE 1024 112 1008 112
WIRE 1056 112 1056 32
WIRE 1136 112 1136 80
WIRE 1136 112 1056 112
WIRE 80 144 80 112
WIRE 528 144 528 112
WIRE 208 160 208 112
WIRE 0 192 0 -112
WIRE 16 192 0 192
WIRE 912 192 912 80
WIRE 1024 192 912 192
WIRE 304 208 272 208
WIRE 352 224 352 64
WIRE 368 224 352 224
WIRE 496 224 368 224
WIRE 608 224 608 160
WIRE 608 224 528 224
WIRE 0 240 0 192
WIRE 16 240 0 240
WIRE 720 240 720 96
WIRE 768 240 768 -176
WIRE 768 240 720 240
WIRE 816 240 768 240
WIRE 848 240 816 240
WIRE 864 240 848 240
WIRE 864 256 864 240
WIRE 304 272 304 208
WIRE 528 288 432 288
WIRE 608 288 608 224
WIRE 608 288 592 288
WIRE 720 304 720 240
WIRE 208 320 208 256
WIRE 400 320 208 320
WIRE 432 320 432 288
WIRE 432 320 400 320
WIRE 608 320 608 288
WIRE 608 320 496 320
WIRE 0 336 0 304
WIRE 1136 336 1136 112
WIRE 368 352 368 224
WIRE 368 352 288 352
WIRE 608 352 608 320
WIRE 624 352 608 352
WIRE 656 352 624 352
WIRE 864 352 864 336
WIRE 432 368 432 320
WIRE 816 368 816 240
WIRE 80 384 80 240
WIRE 112 384 80 384
WIRE 144 384 112 384
WIRE 80 400 80 384
WIRE 208 400 208 320
WIRE 288 400 288 352
WIRE 304 400 288 400
WIRE 608 400 608 352
WIRE 1024 400 1024 192
WIRE 1024 400 960 400
WIRE 896 416 880 416
WIRE 912 416 896 416
WIRE 880 432 880 416
WIRE 1024 432 1024 400
WIRE 144 448 144 384
WIRE 512 448 496 416
WIRE 528 448 512 448
WIRE 544 448 528 448
WIRE 368 464 368 448
WIRE 368 464 288 464
WIRE 512 480 512 448
WIRE 960 480 960 400
WIRE 960 480 944 480
WIRE 288 512 288 464
WIRE 304 512 288 512
WIRE 80 576 80 496
WIRE 208 576 208 496
WIRE 208 576 80 576
WIRE 368 576 368 560
WIRE 368 576 208 576
WIRE 512 576 512 560
WIRE 512 576 368 576
WIRE 608 576 608 496
WIRE 608 576 512 576
WIRE 720 576 720 400
WIRE 720 576 608 576
WIRE 816 576 816 448
WIRE 816 576 720 576
WIRE 880 576 880 528
WIRE 880 576 816 576
WIRE 1024 576 1024 528
WIRE 1024 576 880 576
WIRE 1136 576 1136 416
WIRE 1136 576 1024 576
WIRE 816 672 816 656
FLAG 816 672 0
FLAG 144 32 0
FLAG 304 272 0
FLAG 624 352 o
FLAG -272 16 0
FLAG 848 240 out
FLAG 64 -176 a
FLAG 112 384 c3
FLAG 400 320 c4
FLAG 528 448 b6
FLAG -272 -128 in
FLAG 0 336 0
FLAG -160 32 0
FLAG 864 352 0
FLAG 560 16 b7
FLAG 1008 112 b7
FLAG 144 112 e12
FLAG 832 112 e12
FLAG 896 416 b6
SYMBOL EIT_Semiconductors\\pnp_o 16 144 R0
WINDOW 3 50 63 Left 2
SYMATTR Value CA3096_pnp
SYMATTR InstName Q1
SYMBOL EIT_Semiconductors\\pnp_o 272 160 M0
WINDOW 3 -36 -26 Left 2
SYMATTR Value CA3096_pnp
SYMATTR InstName Q2
SYMBOL EIT_Semiconductors\\npn 144 400 M0
SYMATTR InstName Q3
SYMATTR Value CA3046
SYMBOL EIT_Semiconductors\\npn 144 400 R0
SYMATTR InstName Q4
SYMATTR Value CA3046
SYMBOL EIT_Semiconductors\\npn 432 320 R0
SYMATTR InstName Q5
SYMATTR Value CA3046
SYMBOL EIT_Semiconductors\\npn 544 400 R0
SYMATTR InstName Q6
SYMATTR Value CA3046
SYMBOL EIT_Semiconductors\\npn 656 0 R0
SYMATTR InstName Q7
SYMATTR Value CA3046
SYMBOL EIT_Semiconductors\\pnp_o 656 304 R0
WINDOW 3 -37 -11 Left 2
SYMATTR Value CA3096_pnp
SYMATTR InstName Q8
SYMBOL source-V 816 560 R0
SYMATTR InstName V1
SYMATTR Value -10
SYMBOL source-V 144 -96 R0
SYMATTR InstName V2
SYMATTR Value +10
SYMBOL cap 592 272 R90
WINDOW 0 0 32 VBottom 2
WINDOW 3 32 32 VTop 2
SYMATTR InstName C1
SYMATTR Value 33p
SYMBOL res -128 -160 R270
WINDOW 0 25 56 VTop 2
WINDOW 3 7 56 VBottom 2
SYMATTR InstName R1
SYMATTR Value 100t
SYMBOL res 416 -160 R270
WINDOW 0 25 56 VTop 2
WINDOW 3 7 56 VBottom 2
SYMATTR InstName R2
SYMATTR Value {k*10k}
SYMBOL source-V -272 -112 R0
WINDOW 123 28 56 Left 2
WINDOW 39 0 0 Left 2
WINDOW 3 -173 158 Left 2
SYMATTR Value2 AC 1
SYMATTR Value PULSE(0 3 10u 1p 1p 20u 40u)
SYMATTR InstName V3
SYMBOL res 800 352 R0
WINDOW 0 -36 53 Left 2
WINDOW 3 -29 84 Left 2
SYMATTR InstName R3
SYMATTR Value 1t
SYMBOL cap -16 240 R0
SYMATTR InstName C2
SYMATTR Value 3p
SYMBOL source-V -160 -96 R0
WINDOW 123 28 56 Left 2
WINDOW 39 0 0 Left 2
SYMATTR Value2 AC 1
SYMATTR InstName V4
SYMATTR Value SINE(0 {amp} 5k)
SYMBOL res -128 -96 R270
WINDOW 0 25 56 VTop 2
WINDOW 3 7 56 VBottom 2
SYMATTR InstName R1b
SYMATTR Value 10k
SYMBOL res 848 240 R0
SYMATTR InstName R4
SYMATTR Value 300T
SYMBOL EIT_Semiconductors\\npn 544 64 R0
SYMATTR InstName Q9
SYMATTR Value CA3046
SYMBOL res 512 128 R0
SYMATTR InstName R5
SYMATTR Value 10k
SYMBOL res 512 0 R0
WINDOW 0 -56 35 Left 2
WINDOW 3 -70 72 Left 2
SYMATTR InstName R6
SYMATTR Value 10k
SYMBOL res 1120 320 R0
SYMATTR InstName R7
SYMATTR Value 95k
SYMBOL EIT_Semiconductors\\pnp_o 1072 -16 R0
WINDOW 3 50 63 Left 2
SYMATTR Value CA3096_pnp
SYMATTR InstName Q10
SYMBOL res 1120 -128 R0
SYMATTR InstName R8
SYMATTR Value 1k
SYMBOL EIT_Semiconductors\\pnp_o 1056 -16 M0
WINDOW 3 -71 160 Left 2
SYMATTR Value CA3096_pnp
SYMATTR InstName Q11
SYMBOL res 976 -128 R0
SYMATTR InstName R9
SYMATTR Value 1k
SYMBOL EIT_Semiconductors\\pnp_o 880 -16 M0
WINDOW 3 -71 160 Left 2
SYMATTR Value CA3096_pnp
SYMATTR InstName Q12
SYMBOL res 800 -128 R0
SYMATTR InstName R10
SYMATTR Value 13k
SYMBOL EIT_Semiconductors\\pnp_o 976 -16 M0
WINDOW 3 -71 160 Left 2
SYMATTR Value CA3096_pnp
SYMATTR InstName Q13
SYMBOL res 896 -128 R0
SYMATTR InstName R11
SYMATTR Value 13k
SYMBOL EIT_Semiconductors\\npn 960 432 R0
SYMATTR InstName Q14
SYMATTR Value CA3046
SYMBOL EIT_Semiconductors\\npn 944 432 M0
SYMATTR InstName Q15
SYMATTR Value CA3046
SYMBOL res 336 -128 R0
SYMATTR InstName R12
SYMATTR Value 8k
SYMBOL EIT_Semiconductors\\pnp_o 416 -32 M0
WINDOW 3 -71 160 Left 2
SYMATTR Value CA3096_pnp
SYMATTR InstName Q16
SYMBOL EIT_Semiconductors\\npn 304 464 R0
SYMATTR InstName Q17
SYMATTR Value CA3046
SYMBOL EIT_Semiconductors\\npn 304 352 R0
SYMATTR InstName Q18
SYMATTR Value CA3046
TEXT -264 72 Left 2 !.ac dec 30 0.1 100meg
TEXT -256 112 Left 2 !;op
TEXT -280 144 Left 2 !.param k=1 amp=10
TEXT -280 184 Left 2 !;tran 500u
TEXT -312 240 Left 2 ;.step param amp 9 10 100m
TEXT -312 280 Left 2 ;.step temp list 0 50 100
