Version 4
SHEET 1 1212 760
WIRE 0 -176 -160 -176
WIRE 112 -176 80 -176
WIRE 176 -176 112 -176
WIRE 432 -176 176 -176
WIRE 912 -176 512 -176
WIRE -160 -128 -160 -176
WIRE 0 -112 -48 -112
WIRE 112 -112 112 -176
WIRE 112 -112 80 -112
WIRE 496 -112 256 -112
WIRE 608 -112 496 -112
WIRE 720 -112 608 -112
WIRE 816 -112 720 -112
WIRE -160 -96 -160 -128
WIRE -48 -80 -48 -112
WIRE 608 -80 608 -112
WIRE 816 -80 816 -112
WIRE 256 -48 256 -112
WIRE 720 0 720 -112
WIRE -160 16 -160 -16
WIRE 608 16 608 0
WIRE 608 16 528 16
WIRE -48 32 -48 0
WIRE 816 32 816 0
WIRE 608 48 608 16
WIRE 656 48 608 48
WIRE 608 64 608 48
WIRE 256 112 256 32
WIRE 256 112 192 112
WIRE 320 112 256 112
WIRE 528 112 528 96
WIRE 544 112 528 112
WIRE 192 144 192 112
WIRE 528 144 528 112
WIRE 320 160 320 112
WIRE 112 192 112 -112
WIRE 128 192 112 192
WIRE 400 208 384 208
WIRE 608 224 608 160
WIRE 608 224 528 224
WIRE 112 240 112 192
WIRE 128 240 112 240
WIRE 720 240 720 96
WIRE 816 240 720 240
WIRE 848 240 816 240
WIRE 864 240 848 240
WIRE 912 240 912 -176
WIRE 912 240 864 240
WIRE 400 272 400 208
WIRE 864 272 864 240
WIRE 528 288 432 288
WIRE 608 288 608 224
WIRE 608 288 592 288
WIRE 720 304 720 240
WIRE 496 320 496 -112
WIRE 112 336 112 304
WIRE 608 352 608 288
WIRE 624 352 608 352
WIRE 656 352 624 352
WIRE 320 368 320 256
WIRE 384 368 320 368
WIRE 432 368 432 288
WIRE 432 368 384 368
WIRE 816 368 816 240
WIRE 192 384 192 240
WIRE 224 384 192 384
WIRE 256 384 224 384
WIRE 864 384 864 352
WIRE 192 400 192 384
WIRE 320 400 320 368
WIRE 608 400 608 352
WIRE 256 448 256 384
WIRE 512 448 496 416
WIRE 528 448 512 448
WIRE 544 448 528 448
WIRE 512 480 512 448
WIRE 192 576 192 496
WIRE 320 576 320 496
WIRE 320 576 192 576
WIRE 512 576 512 560
WIRE 512 576 320 576
WIRE 608 576 608 496
WIRE 608 576 512 576
WIRE 720 576 720 400
WIRE 720 576 608 576
WIRE 816 576 816 448
WIRE 816 576 720 576
WIRE 816 672 816 656
FLAG 816 672 0
FLAG 816 32 0
FLAG 400 272 0
FLAG 624 352 o
FLAG -160 16 0
FLAG 848 240 out
FLAG 176 -176 a
FLAG 224 384 c3
FLAG 384 368 c4
FLAG 528 448 b6
FLAG -160 -128 in
FLAG 112 336 0
FLAG -48 32 0
FLAG 864 384 0
SYMBOL EIT_Semiconductors\\pnp_o 128 144 R0
WINDOW 3 50 63 Left 2
SYMATTR Value CA3096_pnp
SYMATTR InstName Q1
SYMBOL EIT_Semiconductors\\pnp_o 384 160 M0
WINDOW 3 -36 -26 Left 2
SYMATTR Value CA3096_pnp
SYMATTR InstName Q2
SYMBOL EIT_Semiconductors\\npn 256 400 M0
SYMATTR InstName Q3
SYMATTR Value CA3046
SYMBOL EIT_Semiconductors\\npn 256 400 R0
SYMATTR InstName Q4
SYMATTR Value CA3046
SYMBOL EIT_Semiconductors\\npn 432 320 R0
SYMATTR InstName Q5
SYMATTR Value CA3046
SYMBOL EIT_Semiconductors\\npn 544 400 R0
SYMATTR InstName Q6
SYMATTR Value CA3046
SYMBOL EIT_Semiconductors\\npn 656 0 R0
SYMATTR InstName Q7
SYMATTR Value CA3046
SYMBOL EIT_Semiconductors\\pnp_o 656 304 R0
WINDOW 3 -37 -11 Left 2
SYMATTR Value CA3096_pnp
SYMATTR InstName Q8
SYMBOL source-V 816 560 R0
SYMATTR InstName V1
SYMATTR Value -10
SYMBOL source-V 816 -96 R0
SYMATTR InstName V2
SYMATTR Value +10
SYMBOL cap 592 272 R90
WINDOW 0 0 32 VBottom 2
WINDOW 3 32 32 VTop 2
SYMATTR InstName C1
SYMATTR Value 33p
SYMBOL source-I 256 32 R180
WINDOW 0 29 73 Left 2
WINDOW 3 29 17 Left 2
SYMATTR InstName I1
SYMATTR Value 20µ
SYMBOL source-I 608 0 R180
WINDOW 0 29 73 Left 2
WINDOW 3 29 17 Left 2
SYMATTR InstName I2
SYMATTR Value 200µ
SYMBOL source-I 512 560 R180
WINDOW 0 29 73 Left 2
WINDOW 3 29 17 Left 2
SYMATTR InstName I3
SYMATTR Value 20µ
SYMBOL res -16 -160 R270
WINDOW 0 25 56 VTop 2
WINDOW 3 7 56 VBottom 2
SYMATTR InstName R1
SYMATTR Value 10k
SYMBOL res 416 -160 R270
WINDOW 0 25 56 VTop 2
WINDOW 3 7 56 VBottom 2
SYMATTR InstName R2
SYMATTR Value {k*10k}
SYMBOL source-V -160 -112 R0
WINDOW 123 28 56 Left 2
WINDOW 39 0 0 Left 2
WINDOW 3 -173 158 Left 2
SYMATTR Value2 AC 1
SYMATTR InstName V3
SYMATTR Value PULSE(0 3 10u 1p 1p 20u 40u)
SYMBOL res 800 352 R0
SYMATTR InstName R3
SYMATTR Value 1t
SYMBOL cap 96 240 R0
SYMATTR InstName C2
SYMATTR Value 3p
SYMBOL source-V -48 -96 R0
WINDOW 123 0 0 Left 2
WINDOW 39 0 0 Left 2
SYMATTR InstName V4
SYMATTR Value SINE(0 5 5k)
SYMBOL res -16 -96 R270
WINDOW 0 25 56 VTop 2
WINDOW 3 7 56 VBottom 2
SYMATTR InstName R1b
SYMATTR Value 100t
SYMBOL res 848 256 R0
SYMATTR InstName R4
SYMATTR Value 300T
SYMBOL EIT_Semiconductors\\npn 544 64 R0
SYMATTR InstName Q9
SYMATTR Value CA3046
SYMBOL res 512 128 R0
SYMATTR InstName R5
SYMATTR Value 10k
SYMBOL res 512 0 R0
WINDOW 0 -56 35 Left 2
WINDOW 3 -70 72 Left 2
SYMATTR InstName R6
SYMATTR Value 10k
TEXT -152 72 Left 2 !.ac dec 30 1 100meg
TEXT -144 112 Left 2 !;op
TEXT -72 160 Left 2 !.param k=1
TEXT -168 184 Left 2 !;tran 500u
