Version 4
SHEET 1 880 680
WIRE 352 32 320 32
WIRE 352 48 352 32
WIRE 64 160 -96 160
WIRE 192 160 64 160
WIRE 320 176 256 176
WIRE 352 176 352 128
WIRE 352 176 320 176
WIRE 368 176 352 176
WIRE -96 192 -96 160
WIRE 64 192 48 192
WIRE 96 192 64 192
WIRE 192 192 176 192
WIRE 224 224 224 208
WIRE 176 272 176 192
WIRE 192 272 176 272
WIRE 224 272 192 272
WIRE 352 272 352 176
WIRE 352 272 304 272
WIRE -96 304 -96 272
WIRE 352 304 352 272
WIRE -96 368 -144 368
WIRE 48 368 48 272
WIRE -144 384 -144 368
WIRE 352 400 352 368
WIRE -144 480 -144 464
WIRE 48 480 48 448
FLAG 224 224 0
FLAG -96 304 0
FLAG 48 480 0
FLAG 320 176 out
FLAG 64 160 saw
FLAG 64 192 reg
FLAG 352 400 0
FLAG -144 480 0
FLAG 192 272 a
SYMBOL EIT_Semiconductors\\comp_oc 224 176 R0
SYMATTR InstName U1
SYMBOL source-V -96 176 R0
WINDOW 3 -39 168 Left 2
WINDOW 123 0 0 Left 2
WINDOW 39 0 0 Left 2
SYMATTR InstName Vsaw
SYMATTR Value PULSE(0 5 0 7u 3u 1p 10u)
SYMBOL source-V 48 176 R0
WINDOW 0 32 57 Left 2
WINDOW 3 -48 138 Left 2
WINDOW 123 0 0 Left 2
WINDOW 39 0 0 Left 2
SYMATTR InstName Vr
SYMATTR Value PULSE(0 5.1 0 1m)
SYMBOL res 336 32 R0
SYMATTR InstName R1
SYMATTR Value 2k
SYMBOL source-Vmarker 320 32 R0
SYMATTR Value V=2.5V
SYMATTR InstName U2
SYMBOL cap 336 304 R0
SYMATTR InstName C1
SYMATTR Value 10p
SYMBOL source-V -144 368 R0
WINDOW 123 0 0 Left 2
WINDOW 39 0 0 Left 2
SYMATTR InstName V1
SYMATTR Value SINE(0 1 500k)
SYMBOL Function-V 48 352 R0
SYMATTR InstName B1
SYMATTR Value V=0.5f*white(time*1e+8)
SYMBOL res 192 176 R90
WINDOW 0 7 56 VBottom 2
WINDOW 3 25 56 VTop 2
SYMATTR InstName R2
SYMATTR Value 10k
SYMBOL res 320 256 R90
WINDOW 0 7 56 VBottom 2
WINDOW 3 25 56 VTop 2
SYMATTR InstName R3
SYMATTR Value 90k
TEXT -32 88 Left 2 !.tran 1m
