Version 4
SHEET 1 880 680
WIRE 128 0 -48 0
WIRE 128 16 128 0
WIRE 32 32 16 32
WIRE 64 32 32 32
WIRE 128 128 128 96
WIRE 192 128 128 128
WIRE 256 128 192 128
WIRE 368 128 336 128
WIRE 432 128 368 128
WIRE 464 128 432 128
WIRE -48 144 -48 0
WIRE 192 144 192 128
WIRE 368 144 368 128
WIRE 464 144 464 128
WIRE 128 160 128 128
WIRE 256 176 256 128
WIRE -48 240 -48 224
WIRE 16 240 16 32
WIRE 64 240 64 80
WIRE 128 240 128 224
WIRE 192 240 192 224
WIRE 336 240 320 240
WIRE 368 240 368 224
WIRE 368 240 336 240
WIRE 464 240 464 224
WIRE 624 240 544 240
WIRE 544 256 544 240
WIRE 256 320 256 256
WIRE 368 320 368 304
WIRE 192 336 192 304
WIRE 544 352 544 336
FLAG 368 320 0
FLAG 128 240 0
FLAG -48 240 0
FLAG 464 240 0
FLAG 432 128 a
FLAG 192 128 s
FLAG 64 240 0
FLAG 16 320 0
FLAG 32 32 crtl
FLAG 544 352 0
FLAG 336 240 ca
FLAG 192 336 0
FLAG 256 320 0
SYMBOL ind 240 144 R270
WINDOW 0 30 56 VTop 2
WINDOW 3 6 56 VBottom 2
SYMATTR InstName L1
SYMATTR Value 20µ
SYMBOL cap 352 240 R0
SYMATTR InstName C1
SYMATTR Value 7.3µ ic=3.3
SYMBOL schottky 144 224 R180
WINDOW 0 24 72 Left 2
WINDOW 3 24 0 Left 2
SYMATTR InstName D1
SYMATTR Value dx
SYMATTR Description Diode
SYMATTR Type diode
SYMBOL source-V -48 128 R0
SYMATTR InstName V1
SYMATTR Value 5
SYMBOL res 448 128 R0
SYMATTR InstName R1
SYMATTR Value 33
SYMBOL crtl-V-S 128 0 R0
SYMATTR InstName S1
SYMATTR Value swx
SYMBOL source-V 16 224 R0
WINDOW 0 32 49 Left 2
WINDOW 123 0 0 Left 2
WINDOW 39 0 0 Left 2
WINDOW 3 7 126 Left 2
SYMATTR InstName V2
SYMATTR Value PULSE(0 2.5 0 1p 1p {p*T} {T})
SYMBOL source-V 544 240 R0
WINDOW 123 0 0 Left 2
WINDOW 39 0 0 Left 2
SYMATTR InstName V3
SYMATTR Value SINE(0 1 1meg)
SYMBOL res 352 128 R0
SYMATTR InstName RS
SYMATTR Value 300m
SYMBOL cap 176 240 R0
SYMATTR InstName C2
SYMATTR Value 100p
SYMBOL res 176 128 R0
SYMATTR InstName R2
SYMATTR Value 10
SYMBOL res 240 160 R0
SYMATTR InstName R3
SYMATTR Value 10k
TEXT 24 376 Left 2 ;.param p=0.6852 T=10u
TEXT -24 -32 Left 2 !.model dx D(Ron=.1m Roff=1Meg Vfwd=.4)
TEXT -24 -56 Left 2 !.model swx SW(Ron=.1m Roff=1Meg Vt=1.25 Vh=-.5)
TEXT 224 24 Left 2 !.tran 0 300u 0 1u uic
TEXT 304 72 Left 2 ;.ic v(a)=3.3
TEXT 392 104 Left 2 ;RL=11,33Ohm für IAmin=291mA
TEXT 320 376 Left 2 ;kontinuierlich
TEXT 24 408 Left 2 !.param p=0.4015 T=10u
TEXT 288 408 Left 2 ;Lückbetrieb bei IA=100mA
