Version 4
SHEET 1 880 1064
WIRE -224 0 -256 0
WIRE -176 0 -224 0
WIRE -32 0 -112 0
WIRE 128 0 -32 0
WIRE -112 16 -112 0
WIRE 128 16 128 0
WIRE -32 32 -32 0
WIRE 32 32 16 32
WIRE 64 32 32 32
WIRE -256 48 -256 0
WIRE -112 112 -112 96
WIRE 128 128 128 96
WIRE 192 128 128 128
WIRE 256 128 192 128
WIRE 368 128 336 128
WIRE 432 128 368 128
WIRE 464 128 432 128
WIRE 512 128 464 128
WIRE 592 128 512 128
WIRE 192 144 192 128
WIRE 368 144 368 128
WIRE 464 144 464 128
WIRE 592 144 592 128
WIRE -128 160 -144 160
WIRE -32 160 -32 112
WIRE -32 160 -48 160
WIRE 16 160 16 32
WIRE 16 160 -32 160
WIRE 128 160 128 128
WIRE -256 176 -256 128
WIRE 256 176 256 128
WIRE -144 192 -144 160
WIRE -176 224 -176 0
WIRE -80 224 -176 224
WIRE 16 240 16 160
WIRE 16 240 -16 240
WIRE 64 240 64 80
WIRE 128 240 128 224
WIRE 192 240 192 224
WIRE 336 240 320 240
WIRE 368 240 368 224
WIRE 368 240 336 240
WIRE 464 240 464 224
WIRE 592 240 592 224
WIRE -368 256 -384 256
WIRE -208 256 -224 256
WIRE -96 256 -128 256
WIRE -80 256 -96 256
WIRE -48 288 -48 272
WIRE -224 304 -224 256
WIRE 256 320 256 256
WIRE 368 320 368 304
WIRE -384 336 -384 256
WIRE -352 336 -384 336
WIRE -96 336 -96 256
WIRE -80 336 -96 336
WIRE 16 336 16 240
WIRE 16 336 0 336
WIRE 192 336 192 304
WIRE 656 336 576 336
WIRE -224 352 -224 304
WIRE -224 352 -288 352
WIRE 576 352 576 336
WIRE -400 368 -432 368
WIRE -352 368 -400 368
WIRE 576 448 576 432
WIRE -384 464 -384 336
WIRE -352 464 -384 464
WIRE 512 464 512 128
WIRE 512 464 -272 464
WIRE -96 560 -112 560
WIRE -16 560 -96 560
WIRE 192 560 64 560
WIRE 256 560 192 560
WIRE 368 560 336 560
WIRE 432 560 368 560
WIRE 464 560 432 560
WIRE 512 560 464 560
WIRE 592 560 512 560
WIRE -112 576 -112 560
WIRE 64 576 64 560
WIRE 192 576 192 560
WIRE 368 576 368 560
WIRE 464 576 464 560
WIRE 592 576 592 560
WIRE -240 592 -272 592
WIRE -192 592 -240 592
WIRE -16 592 -16 560
WIRE 256 608 256 560
WIRE -192 672 -192 640
WIRE -112 672 -112 656
WIRE 64 672 64 656
WIRE 192 672 192 656
WIRE 336 672 320 672
WIRE 368 672 368 656
WIRE 368 672 336 672
WIRE 464 672 464 656
WIRE 592 672 592 656
WIRE -240 688 -240 592
WIRE -16 704 -16 640
WIRE 256 752 256 688
WIRE 368 752 368 736
WIRE -384 768 -384 688
WIRE -352 768 -384 768
WIRE -112 768 -112 752
WIRE 64 768 64 752
WIRE 192 768 192 736
WIRE -240 784 -240 688
WIRE -240 784 -288 784
WIRE -400 800 -400 368
WIRE -352 800 -400 800
WIRE -384 896 -384 768
WIRE -352 896 -384 896
WIRE 512 896 512 560
WIRE 512 896 -272 896
FLAG 368 320 0
FLAG 128 240 0
FLAG -112 112 0
FLAG 464 240 0
FLAG 432 128 a
FLAG 192 128 s
FLAG 64 240 0
FLAG 32 32 crtl
FLAG 576 448 0
FLAG 336 240 ca
FLAG 192 336 0
FLAG 256 320 0
FLAG -48 288 0
FLAG -144 192 0
FLAG -256 176 0
FLAG -224 0 saw
FLAG -224 304 r
FLAG 592 240 0
FLAG 368 752 0
FLAG 464 672 0
FLAG 432 560 a-l
FLAG 192 560 s-l
FLAG 336 672 ca-l
FLAG 192 768 0
FLAG 256 752 0
FLAG 592 672 0
FLAG -112 768 0
FLAG -96 560 p
FLAG -192 672 0
FLAG -272 592 r-l
FLAG 64 768 0
FLAG -16 704 0
SYMBOL ind 240 144 R270
WINDOW 0 30 56 VTop 2
WINDOW 3 6 56 VBottom 2
SYMATTR InstName L1
SYMATTR Value 20µ
SYMBOL cap 352 240 R0
SYMATTR InstName C1
SYMATTR Value 22µ ic=3.3
SYMBOL schottky 144 224 R180
WINDOW 0 24 72 Left 2
WINDOW 3 24 0 Left 2
SYMATTR InstName D1
SYMATTR Value dx
SYMATTR Description Diode
SYMATTR Type diode
SYMBOL source-V -112 0 R0
SYMATTR InstName V1
SYMATTR Value 5
SYMBOL res 448 128 R0
SYMATTR InstName R1
SYMATTR Value 8
SYMBOL crtl-V-S 128 0 R0
SYMATTR InstName S1
SYMATTR Value swx
SYMBOL source-V 576 336 R0
WINDOW 123 0 0 Left 2
WINDOW 39 0 0 Left 2
SYMATTR InstName V3
SYMATTR Value SINE(0 1 1meg)
SYMBOL res 352 128 R0
SYMATTR InstName RS
SYMATTR Value 100m
SYMBOL cap 176 240 R0
SYMATTR InstName C2
SYMATTR Value 100p
SYMBOL res 176 128 R0
SYMATTR InstName R2
SYMATTR Value 10
SYMBOL res 240 160 R0
SYMATTR InstName R3
SYMATTR Value 10k
SYMBOL EIT_Semiconductors\\comp_oc -48 240 R0
SYMATTR InstName U1
SYMBOL res -48 16 R0
SYMATTR InstName R4
SYMATTR Value 10k
SYMBOL res -32 176 M270
WINDOW 0 25 56 VTop 2
WINDOW 3 7 56 VBottom 2
SYMATTR InstName R5
SYMATTR Value 10k
SYMBOL source-V -256 32 R0
WINDOW 3 -73 -66 Left 2
WINDOW 123 0 0 Left 2
WINDOW 39 0 0 Left 2
SYMATTR InstName V2
SYMATTR Value PULSE(2 4 0 8u 2u 1p 10u)
SYMBOL res -112 240 R90
WINDOW 0 7 56 VBottom 2
WINDOW 3 25 56 VTop 2
SYMATTR InstName R6
SYMATTR Value 1k
SYMBOL res 16 320 R90
WINDOW 0 7 56 VBottom 2
WINDOW 3 25 56 VTop 2
SYMATTR InstName R7
SYMATTR Value 100k
SYMBOL EIT_Semiconductors\\op_3 -320 352 R0
SYMATTR InstName U2
SYMBOL source-Vmarker -432 368 R0
WINDOW 3 -58 1 Center 2
SYMATTR Value V=3.3V
SYMATTR InstName U3
SYMBOL res -272 240 R90
WINDOW 0 7 56 VBottom 2
WINDOW 3 25 56 VTop 2
SYMATTR InstName R8
SYMATTR Value {kr*1k}
SYMBOL res -256 448 R90
WINDOW 0 7 56 VBottom 2
WINDOW 3 25 56 VTop 2
SYMATTR InstName R9
SYMATTR Value 1k
SYMBOL source-I 592 224 R180
WINDOW 0 29 73 Left 2
WINDOW 3 -175 -58 Left 2
WINDOW 123 0 0 Left 2
WINDOW 39 0 0 Left 2
SYMATTR InstName I1
SYMATTR Value PULSE(0 500m 200u)
SYMBOL ind 240 576 R270
WINDOW 0 30 56 VTop 2
WINDOW 3 6 56 VBottom 2
SYMATTR InstName L2
SYMATTR Value 20µ
SYMBOL cap 352 672 R0
SYMATTR InstName C3
SYMATTR Value 22µ ic=3.3
SYMBOL res 448 560 R0
SYMATTR InstName R10
SYMATTR Value 8
SYMBOL res 352 560 R0
SYMATTR InstName RS1
SYMATTR Value 100m
SYMBOL cap 176 672 R0
SYMATTR InstName C4
SYMATTR Value 100p
SYMBOL res 176 560 R0
SYMATTR InstName R11
SYMATTR Value 10
SYMBOL res 240 592 R0
SYMATTR InstName R12
SYMATTR Value 10k
SYMBOL EIT_Semiconductors\\op_3 -320 784 R0
SYMATTR InstName U5
SYMBOL res -288 672 R90
WINDOW 0 7 56 VBottom 2
WINDOW 3 25 56 VTop 2
SYMATTR InstName R17
SYMATTR Value {kr*1k}
SYMBOL res -256 880 R90
WINDOW 0 7 56 VBottom 2
WINDOW 3 25 56 VTop 2
SYMATTR InstName R18
SYMATTR Value 1k
SYMBOL source-I 592 656 R180
WINDOW 0 29 73 Left 2
WINDOW 3 -175 -58 Left 2
WINDOW 123 0 0 Left 2
WINDOW 39 0 0 Left 2
SYMATTR InstName I2
SYMATTR Value PULSE(0 500m 200u)
SYMBOL crtl-V-V -112 560 R0
SYMATTR InstName E1
SYMATTR Value 0.5
SYMBOL source-V -112 656 R0
SYMATTR InstName V4
SYMATTR Value -1
SYMBOL source-V 64 656 R0
SYMATTR InstName V5
SYMATTR Value -0.4
SYMBOL crtl-V-V 64 560 R0
SYMATTR InstName E2
SYMATTR Value 5.4
SYMBOL cap -224 240 R90
WINDOW 0 0 32 VBottom 2
WINDOW 3 32 32 VTop 2
SYMATTR InstName C5
SYMATTR Value 47n
SYMBOL cap -240 672 R90
WINDOW 0 0 32 VBottom 2
WINDOW 3 32 32 VTop 2
SYMATTR InstName C6
SYMATTR Value 47n
TEXT 24 376 Left 2 ;.param p=0.6852 T=10u
TEXT -24 -32 Left 2 !.model dx D(Ron=.1m Roff=1Meg Vfwd=.4)
TEXT -24 -56 Left 2 !.model swx SW(Ron=.1m Roff=1Meg Vt=1.25 Vh=-.5)
TEXT 224 24 Left 2 !.tran 0 800u 0 1u uic
TEXT 304 72 Left 2 ;.ic v(a)=3.3
TEXT 392 104 Left 2 ;RL=11,33Ohm für IAmin=291mA
TEXT 320 376 Left 2 ;kontinuierlich
TEXT 24 408 Left 2 !.param p=0.4015 T=10u
TEXT 288 408 Left 2 ;Lückbetrieb bei IA=100mA
TEXT -480 216 Left 2 !.param kr=5
TEXT -384 -104 Left 2 ;.step param kr list 1 2 3 4 5 10
TEXT 304 504 Left 2 ;.ic v(a)=3.3
