Version 4
SHEET 1 880 1064
WIRE 368 -208 320 -208
WIRE 448 -208 368 -208
WIRE 592 -192 528 -192
WIRE 320 -176 320 -208
WIRE 368 -160 368 -208
WIRE 528 -160 528 -192
WIRE 448 -144 448 -208
WIRE 0 -128 -32 -128
WIRE 96 -128 64 -128
WIRE 272 -128 176 -128
WIRE -32 -96 -32 -128
WIRE 176 -96 176 -128
WIRE 96 -80 96 -128
WIRE 320 -64 320 -96
WIRE 368 -64 368 -80
WIRE 448 -48 448 -96
WIRE 176 0 176 -16
WIRE 176 0 144 0
WIRE 272 16 272 -128
WIRE 272 16 192 16
WIRE -32 32 -32 -16
WIRE 96 32 96 -32
WIRE 144 32 144 0
WIRE 528 32 528 -80
WIRE 528 32 144 32
WIRE 592 48 592 -192
WIRE 592 48 192 48
WIRE -96 96 -112 96
WIRE -16 96 -96 96
WIRE 96 96 64 96
WIRE 144 96 144 32
WIRE 144 96 96 96
WIRE 192 96 192 48
WIRE 256 96 192 96
WIRE 368 96 336 96
WIRE 432 96 368 96
WIRE 464 96 432 96
WIRE 512 96 464 96
WIRE -112 112 -112 96
WIRE 64 112 64 96
WIRE 192 112 192 96
WIRE 368 112 368 96
WIRE 464 112 464 96
WIRE -240 128 -272 128
WIRE -192 128 -240 128
WIRE -16 128 -16 96
WIRE 256 144 256 96
WIRE -192 208 -192 176
WIRE -112 208 -112 192
WIRE 64 208 64 192
WIRE 192 208 192 192
WIRE 336 208 320 208
WIRE 368 208 368 192
WIRE 368 208 336 208
WIRE 464 208 464 192
WIRE -304 224 -304 160
WIRE -240 224 -240 128
WIRE -16 240 -16 176
WIRE -240 288 -240 224
WIRE 256 288 256 224
WIRE 368 288 368 272
WIRE -352 304 -400 304
WIRE -320 304 -352 304
WIRE -112 304 -112 288
WIRE 64 304 64 288
WIRE 192 304 192 272
WIRE -352 320 -352 304
WIRE -384 352 -384 224
WIRE -320 352 -384 352
WIRE -240 384 -240 368
WIRE -384 432 -384 352
WIRE -352 432 -384 432
WIRE 512 432 512 96
WIRE 512 432 -272 432
WIRE -96 560 -112 560
WIRE -16 560 -96 560
WIRE 192 560 64 560
WIRE 256 560 192 560
WIRE 368 560 336 560
WIRE 432 560 368 560
WIRE 464 560 432 560
WIRE 512 560 464 560
WIRE 592 560 512 560
WIRE -112 576 -112 560
WIRE 64 576 64 560
WIRE 192 576 192 560
WIRE 368 576 368 560
WIRE 464 576 464 560
WIRE 592 576 592 560
WIRE -240 592 -272 592
WIRE -192 592 -240 592
WIRE -16 592 -16 560
WIRE 256 608 256 560
WIRE -192 672 -192 640
WIRE -112 672 -112 656
WIRE 64 672 64 656
WIRE 192 672 192 656
WIRE 336 672 320 672
WIRE 368 672 368 656
WIRE 368 672 336 672
WIRE 464 672 464 656
WIRE 592 672 592 656
WIRE -304 688 -304 624
WIRE -240 688 -240 592
WIRE -16 704 -16 640
WIRE 256 752 256 688
WIRE 368 752 368 736
WIRE -112 768 -112 752
WIRE 64 768 64 752
WIRE 192 768 192 736
WIRE -240 784 -240 688
WIRE -240 784 -272 784
WIRE -400 800 -400 304
WIRE -400 800 -416 800
WIRE -352 800 -400 800
WIRE -384 848 -384 688
WIRE -352 848 -384 848
WIRE -384 896 -384 848
WIRE -352 896 -384 896
WIRE 512 896 512 560
WIRE 512 896 -272 896
FLAG 368 752 0
FLAG 464 672 0
FLAG 432 560 a-l
FLAG 192 560 s-l
FLAG 336 672 ca-l
FLAG 192 768 0
FLAG 256 752 0
FLAG 592 672 0
FLAG -112 768 0
FLAG -96 560 p
FLAG -192 672 0
FLAG -272 592 r-l
FLAG 64 768 0
FLAG -16 704 0
FLAG 368 288 0
FLAG 464 208 0
FLAG 432 96 a-n
FLAG 192 96 s-n
FLAG 336 208 ca-n
FLAG 192 304 0
FLAG 256 288 0
FLAG -112 304 0
FLAG -96 96 p-n
FLAG -192 208 0
FLAG -272 128 r-n
FLAG 64 304 0
FLAG -16 240 0
FLAG -240 384 0
FLAG -32 32 0
FLAG 96 32 0
FLAG 96 96 s_out
FLAG 320 -64 0
FLAG 368 -64 0
FLAG 448 -48 0
FLAG -272 864 0
SYMBOL source-Vmarker -416 800 R0
WINDOW 3 -58 1 Center 2
SYMATTR Value V=3.3V
SYMATTR InstName U3
SYMBOL ind 240 576 R270
WINDOW 0 30 56 VTop 2
WINDOW 3 6 56 VBottom 2
SYMATTR InstName L2
SYMATTR Value 20µ
SYMBOL cap 352 672 R0
SYMATTR InstName C3
SYMATTR Value 22µ ic=3.3
SYMBOL res 448 560 R0
SYMATTR InstName R10
SYMATTR Value 8
SYMBOL res 352 560 R0
SYMATTR InstName RS1
SYMATTR Value 300m
SYMBOL cap 176 672 R0
SYMATTR InstName C4
SYMATTR Value 100p
SYMBOL res 176 560 R0
SYMATTR InstName R11
SYMATTR Value 10
SYMBOL res 240 592 R0
SYMATTR InstName R12
SYMATTR Value 10k
SYMBOL res -288 672 R90
WINDOW 0 7 56 VBottom 2
WINDOW 3 25 56 VTop 2
SYMATTR InstName R17
SYMATTR Value {kr*1k}
SYMBOL res -256 880 R90
WINDOW 0 7 56 VBottom 2
WINDOW 3 25 56 VTop 2
SYMATTR InstName R18
SYMATTR Value 1k
SYMBOL source-I 592 656 R180
WINDOW 0 29 73 Left 2
WINDOW 3 -175 -58 Left 2
WINDOW 123 0 0 Left 2
WINDOW 39 0 0 Left 2
SYMATTR InstName I2
SYMATTR Value PULSE(0 500m 200u)
SYMBOL crtl-V-V -112 560 R0
SYMATTR InstName E1
SYMATTR Value 0.5
SYMBOL source-V -112 656 R0
SYMATTR InstName V4
SYMATTR Value -1
SYMBOL source-V 64 656 R0
SYMATTR InstName V5
SYMATTR Value -0.4
SYMBOL crtl-V-V 64 560 R0
SYMATTR InstName E2
SYMATTR Value 5.4
SYMBOL cap -240 672 R90
WINDOW 0 0 32 VBottom 2
WINDOW 3 32 32 VTop 2
SYMATTR InstName C6
SYMATTR Value 47n
SYMBOL ind 240 112 R270
WINDOW 0 30 56 VTop 2
WINDOW 3 6 56 VBottom 2
SYMATTR InstName L1
SYMATTR Value 20µ
SYMBOL cap 352 208 R0
SYMATTR InstName C1
SYMATTR Value 22µ ic=3.3
SYMBOL res 448 96 R0
SYMATTR InstName R1
SYMATTR Value 8
SYMBOL res 352 96 R0
SYMATTR InstName RS2
SYMATTR Value 300m
SYMBOL cap 176 208 R0
SYMATTR InstName C2
SYMATTR Value 100p
SYMBOL res 176 96 R0
SYMATTR InstName R2
SYMATTR Value 10
SYMBOL res 240 128 R0
SYMATTR InstName R3
SYMATTR Value 10k
SYMBOL res -288 208 R90
WINDOW 0 7 56 VBottom 2
WINDOW 3 25 56 VTop 2
SYMATTR InstName R4
SYMATTR Value {kr*1k}
SYMBOL res -256 416 R90
WINDOW 0 7 56 VBottom 2
WINDOW 3 25 56 VTop 2
SYMATTR InstName R5
SYMATTR Value 1k
SYMBOL crtl-V-V -112 96 R0
SYMATTR InstName E3
SYMATTR Value 0.5
SYMBOL source-V -112 192 R0
SYMATTR InstName V1
SYMATTR Value -1
SYMBOL source-V 64 192 R0
SYMATTR InstName V2
SYMATTR Value -0.4
SYMBOL crtl-V-V 64 96 R0
SYMATTR InstName E4
SYMATTR Value 5.4
SYMBOL cap -240 208 R90
WINDOW 0 0 32 VBottom 2
WINDOW 3 32 32 VTop 2
SYMATTR InstName C5
SYMATTR Value 47n
SYMBOL crtl-V-V -240 272 R0
SYMATTR InstName E5
SYMATTR Value 10000
SYMBOL source-V -32 -112 R0
WINDOW 3 -284 29 Left 2
WINDOW 123 28 56 Left 2
WINDOW 39 0 0 Left 2
SYMATTR InstName V3
SYMATTR Value PULSE(0 500m 200u)
SYMATTR Value2 AC 1
SYMBOL cap 0 -112 R270
WINDOW 0 32 32 VTop 2
WINDOW 3 0 32 VBottom 2
SYMATTR InstName C7
SYMATTR Value 20µ
SYMBOL crtl-I-V 176 -112 R0
SYMATTR InstName U1
SYMATTR Value H=-1
SYMBOL ind 352 -176 R0
SYMATTR InstName L3
SYMATTR Value 20µ
SYMBOL source-I 320 -176 R0
WINDOW 0 -49 -34 Left 2
WINDOW 3 -49 -6 Left 2
WINDOW 123 -81 -9 Left 2
WINDOW 39 0 0 Left 2
SYMATTR InstName I1
SYMATTR Value PULSE(0 500m 200u)
SYMATTR Value2 AC 1
SYMBOL crtl-V-V 528 -176 R0
SYMATTR InstName E6
SYMATTR Value -1
SYMBOL crtl-V-V -272 768 R0
SYMATTR InstName E7
SYMATTR Value 10000
TEXT -456 528 Left 2 !.tran 0 800u 0 1u uic
TEXT -456 560 Left 2 !.param kr=0.2
TEXT -448 496 Left 2 !.step param kr list 0.4 0.5 0.6 0.7
TEXT 304 504 Left 2 ;.ic v(a)=3.3
TEXT 304 40 Left 2 ;.ic v(a)=3.3
TEXT -416 -24 Left 2 !;ac dec 200 1 1meg
