Version 4
SHEET 1 1040 928
WIRE -64 -64 -144 -64
WIRE 32 -64 0 -64
WIRE -144 -48 -144 -64
WIRE 144 -32 112 -32
WIRE 176 -32 144 -32
WIRE 112 0 112 -32
WIRE 32 16 32 -64
WIRE -144 64 -144 32
WIRE 176 80 176 -32
WIRE 304 80 256 80
WIRE 368 80 304 80
WIRE 400 80 368 80
WIRE 592 80 400 80
WIRE -320 96 -336 96
WIRE 32 96 32 64
WIRE 304 96 304 80
WIRE 400 96 400 80
WIRE -80 112 -96 112
WIRE 0 112 -80 112
WIRE -400 144 -432 144
WIRE -336 144 -336 96
WIRE 112 144 112 80
WIRE -96 160 -96 112
WIRE 112 160 112 144
WIRE -240 176 -240 96
WIRE -208 176 -240 176
WIRE -176 176 -208 176
WIRE 0 176 0 112
WIRE 32 176 0 176
WIRE 400 192 400 176
WIRE -512 224 -544 224
WIRE -432 224 -432 144
WIRE -416 224 -432 224
WIRE -336 224 -336 144
WIRE -320 224 -336 224
WIRE -240 224 -240 176
WIRE -240 224 -256 224
WIRE -240 256 -240 224
WIRE -96 256 -96 240
WIRE 112 256 112 240
WIRE -432 272 -432 224
WIRE -320 272 -432 272
WIRE 304 304 304 240
WIRE -320 320 -432 320
WIRE -96 352 -96 336
WIRE 112 352 112 336
WIRE -544 384 -544 224
WIRE 592 384 592 80
WIRE 592 384 -544 384
WIRE 144 464 112 464
WIRE 176 464 144 464
WIRE 304 464 256 464
WIRE 368 464 304 464
WIRE 400 464 368 464
WIRE 512 464 400 464
WIRE 592 464 512 464
WIRE -320 480 -336 480
WIRE 304 480 304 464
WIRE 400 480 400 464
WIRE -80 496 -96 496
WIRE 0 496 -80 496
WIRE 512 512 512 464
WIRE -400 528 -432 528
WIRE -336 528 -336 480
WIRE -96 544 -96 496
WIRE 112 544 112 464
WIRE -240 560 -240 480
WIRE -208 560 -240 560
WIRE -176 560 -208 560
WIRE 0 560 0 496
WIRE 32 560 0 560
WIRE 400 576 400 560
WIRE -512 608 -544 608
WIRE -432 608 -432 528
WIRE -416 608 -432 608
WIRE -336 608 -336 528
WIRE -320 608 -336 608
WIRE -240 608 -240 560
WIRE -240 608 -256 608
WIRE 512 624 512 592
WIRE -240 640 -240 608
WIRE -96 640 -96 624
WIRE 112 640 112 624
WIRE -432 656 -432 608
WIRE -320 656 -432 656
WIRE 304 688 304 624
WIRE -320 704 -432 704
WIRE -96 736 -96 720
WIRE 112 736 112 720
WIRE -544 768 -544 608
WIRE 592 768 592 464
WIRE 592 768 -544 768
FLAG 304 688 0
FLAG 400 576 0
FLAG 144 464 s_lin2
FLAG 368 464 out_lin2
FLAG 512 624 0
FLAG -240 720 0
FLAG -176 608 0
FLAG -208 560 vr_lin2
FLAG -96 736 0
FLAG -80 496 p_lin2
FLAG 32 608 0
FLAG 112 736 0
FLAG 304 304 0
FLAG 400 192 0
FLAG 112 144 s_lin
FLAG 368 80 out_lin
FLAG -240 336 0
FLAG -176 224 0
FLAG -208 176 vr_lin
FLAG -96 352 0
FLAG -80 112 p_lin
FLAG 32 224 0
FLAG 112 352 0
FLAG 32 96 0
FLAG -144 64 0
FLAG 144 -32 s2
SYMBOL ind 160 480 R270
WINDOW 0 30 56 VTop 2
WINDOW 3 6 56 VBottom 2
SYMATTR InstName L2
SYMATTR Value 50µ
SYMBOL cap 288 560 R0
WINDOW 3 -63 67 Left 2
SYMATTR Value {ca} IC=5
SYMATTR InstName C3
SYMBOL res 384 464 R0
SYMATTR InstName RL1
SYMATTR Value {RL}
SYMBOL source-I 512 592 R180
WINDOW 0 29 73 Left 2
WINDOW 3 -40 -70 Left 2
WINDOW 123 0 0 Left 2
WINDOW 39 0 0 Left 2
SYMATTR InstName I2
SYMATTR Value PULSE(0 500m 3m)
SYMBOL res 288 464 R0
SYMATTR InstName RS1
SYMATTR Value 0.2
SYMBOL crtl-V-V -240 624 R0
WINDOW 3 36 54 Left 2
SYMATTR Value -1meg
SYMATTR InstName E2
SYMBOL res -432 624 R270
WINDOW 0 25 56 VTop 2
WINDOW 3 7 56 VBottom 2
SYMATTR InstName R3
SYMATTR Value {KR*1k}
SYMBOL res -528 624 R270
WINDOW 0 25 56 VTop 2
WINDOW 3 7 56 VBottom 2
SYMATTR InstName R4
SYMATTR Value 1k
SYMBOL source-Vmarker -432 704 R0
WINDOW 3 -46 5 Center 2
SYMATTR InstName U5
SYMBOL cap -336 512 R90
WINDOW 0 0 32 VBottom 2
WINDOW 3 32 32 VTop 2
SYMATTR InstName C4
SYMATTR Value 500f
SYMBOL crtl-V-V -96 528 R0
SYMATTR InstName E3
SYMATTR Value 0.333333
SYMBOL source-V -96 624 R0
SYMATTR InstName V4
SYMATTR Value -1
SYMBOL crtl-V-V 112 528 R0
SYMATTR InstName E4
SYMATTR Value 15.4
SYMBOL source-V 112 624 R0
SYMATTR InstName V5
SYMATTR Value -0.4
SYMBOL cap -256 592 R90
WINDOW 0 0 32 VBottom 2
WINDOW 3 32 32 VTop 2
SYMATTR InstName C5
SYMATTR Value 47n
SYMBOL res -224 464 R90
WINDOW 0 7 56 VBottom 2
WINDOW 3 25 56 VTop 2
SYMATTR InstName R1
SYMATTR Value 1t
SYMBOL ind 160 96 R270
WINDOW 0 30 56 VTop 2
WINDOW 3 6 56 VBottom 2
SYMATTR InstName L1
SYMATTR Value 50µ
SYMBOL cap 288 176 R0
WINDOW 3 -63 67 Left 2
SYMATTR Value {ca} IC=5
SYMATTR InstName C1
SYMBOL res 384 80 R0
SYMATTR InstName RL2
SYMATTR Value {RL}
SYMBOL res 288 80 R0
SYMATTR InstName RS2
SYMATTR Value 0.2
SYMBOL crtl-V-V -240 240 R0
WINDOW 3 36 54 Left 2
SYMATTR Value -1meg
SYMATTR InstName E1
SYMBOL res -432 240 R270
WINDOW 0 25 56 VTop 2
WINDOW 3 7 56 VBottom 2
SYMATTR InstName R2
SYMATTR Value {KR*1k}
SYMBOL res -528 240 R270
WINDOW 0 25 56 VTop 2
WINDOW 3 7 56 VBottom 2
SYMATTR InstName R5
SYMATTR Value 1k
SYMBOL source-Vmarker -432 320 R0
WINDOW 3 -46 5 Center 2
SYMATTR InstName U1
SYMBOL cap -336 128 R90
WINDOW 0 0 32 VBottom 2
WINDOW 3 32 32 VTop 2
SYMATTR InstName C2
SYMATTR Value 500f
SYMBOL crtl-V-V -96 144 R0
SYMATTR InstName E5
SYMATTR Value 0.333333
SYMBOL source-V -96 240 R0
SYMATTR InstName V1
SYMATTR Value -1
SYMBOL crtl-V-V 112 144 R0
SYMATTR InstName E6
SYMATTR Value 15.4
SYMBOL source-V 112 240 R0
SYMATTR InstName V2
SYMATTR Value -0.4
SYMBOL cap -256 208 R90
WINDOW 0 0 32 VBottom 2
WINDOW 3 32 32 VTop 2
SYMATTR InstName C6
SYMATTR Value 47n
SYMBOL res -224 80 R90
WINDOW 0 7 56 VBottom 2
WINDOW 3 25 56 VTop 2
SYMATTR InstName R6
SYMATTR Value 1t
SYMBOL crtl-I-V 112 -16 R0
WINDOW 3 38 78 Center 2
SYMATTR Value H=-1
SYMATTR InstName U2
SYMBOL source-V -144 -64 R0
WINDOW 3 -245 57 Left 2
WINDOW 123 28 56 Left 2
WINDOW 39 0 0 Left 2
SYMATTR Value PULSE(0 500m 3m)
SYMATTR Value2 AC 1
SYMATTR InstName V3
SYMBOL cap -64 -80 M90
WINDOW 0 0 32 VBottom 2
WINDOW 3 32 32 VTop 2
SYMATTR InstName C7
SYMATTR Value 50µ
TEXT -272 800 Left 2 !.param p=0.35064935064935064935 Tper=20u ca=100u RL=5
TEXT -128 824 Left 2 ;IAmin=700mA -> RL=5/0,7=7,13Ohm
TEXT -240 864 Left 2 !;tran 0 5m 0 0.1u
TEXT 488 480 Left 2 ;VA=5V
TEXT -264 912 Left 2 !.ac dec 300 1 100meg
TEXT -448 808 Left 2 !.param KR=30
TEXT 488 96 Left 2 ;VA=5V
TEXT -8 888 Left 2 ;.step param kr list 0.5 1 2 5 10
