Version 4
SHEET 1 880 1012
WIRE -240 -384 -256 -384
WIRE -224 -384 -240 -384
WIRE 144 -384 96 -384
WIRE 272 -384 224 -384
WIRE 368 -384 336 -384
WIRE -800 -336 -800 -352
WIRE -464 -320 -480 -320
WIRE -448 -320 -464 -320
WIRE -336 -320 -368 -320
WIRE -304 -320 -336 -320
WIRE 208 -320 192 -320
WIRE 192 -304 192 -320
WIRE -240 -288 -256 -288
WIRE -160 -288 -240 -288
WIRE -64 -288 -80 -288
WIRE 32 -288 0 -288
WIRE 48 -288 32 -288
WIRE 96 -288 96 -384
WIRE 96 -288 48 -288
WIRE 176 -288 96 -288
WIRE -544 -272 -560 -272
WIRE -464 -272 -464 -320
WIRE -464 -272 -480 -272
WIRE 368 -272 368 -384
WIRE 368 -272 240 -272
WIRE -256 -256 -256 -288
WIRE 176 -256 128 -256
WIRE 192 -224 192 -240
WIRE 224 -224 224 -240
WIRE 128 -208 128 -256
WIRE -1008 -192 -1120 -192
WIRE -976 -192 -1008 -192
WIRE -896 -192 -976 -192
WIRE -800 -192 -800 -256
WIRE -800 -192 -896 -192
WIRE -640 -192 -800 -192
WIRE -560 -192 -560 -272
WIRE -560 -192 -640 -192
WIRE -256 -160 -256 -176
WIRE -1120 -128 -1120 -192
WIRE -1008 -128 -1008 -192
WIRE -896 -128 -896 -192
WIRE -800 -128 -800 -192
WIRE 32 -112 32 -288
WIRE -240 -96 -256 -96
WIRE -224 -96 -240 -96
WIRE -560 -32 -560 -192
WIRE -544 -32 -560 -32
WIRE -528 -32 -544 -32
WIRE -464 -32 -480 -32
WIRE -448 -32 -464 -32
WIRE -336 -32 -368 -32
WIRE -304 -32 -336 -32
WIRE -1120 -16 -1120 -48
WIRE -1008 -16 -1008 -48
WIRE -1008 -16 -1120 -16
WIRE -896 -16 -896 -64
WIRE -896 -16 -1008 -16
WIRE -800 -16 -800 -64
WIRE -800 -16 -896 -16
WIRE -1008 0 -1008 -16
WIRE -176 0 -256 0
WIRE -96 0 -176 0
WIRE 32 0 32 -48
WIRE 32 0 -16 0
WIRE -256 32 -256 0
WIRE -464 48 -464 -32
WIRE -464 48 -480 48
WIRE -256 128 -256 112
WIRE -1104 448 -1216 448
WIRE -848 480 -912 480
WIRE -832 480 -848 480
WIRE -672 480 -736 480
WIRE -656 480 -672 480
WIRE -1168 496 -1184 496
WIRE -1456 512 -1472 512
WIRE -1360 512 -1376 512
WIRE -1168 512 -1168 496
WIRE -912 512 -912 480
WIRE -736 512 -736 480
WIRE -1216 528 -1216 448
WIRE -1200 528 -1216 528
WIRE -1104 544 -1104 448
WIRE -1104 544 -1136 544
WIRE -1072 544 -1104 544
WIRE -1360 560 -1360 512
WIRE -1280 560 -1360 560
WIRE -1200 560 -1280 560
WIRE -1360 576 -1360 560
WIRE -1280 576 -1280 560
WIRE -1472 592 -1472 512
WIRE -1360 672 -1360 640
WIRE -1280 672 -1280 656
WIRE -800 768 -800 752
WIRE -592 768 -592 752
WIRE -1472 784 -1472 768
WIRE -1296 784 -1296 768
WIRE -1120 784 -1120 768
WIRE -960 784 -960 768
WIRE -800 880 -800 848
WIRE -736 880 -800 880
WIRE -592 880 -592 848
WIRE -528 880 -592 880
WIRE -1472 896 -1472 864
WIRE -1408 896 -1472 896
WIRE -1296 896 -1296 864
WIRE -1232 896 -1296 896
WIRE -1120 896 -1120 864
WIRE -1056 896 -1120 896
WIRE -960 896 -960 864
WIRE -896 896 -960 896
WIRE -800 896 -800 880
WIRE -736 896 -736 880
WIRE -592 896 -592 880
WIRE -528 896 -528 880
WIRE -1472 912 -1472 896
WIRE -1408 912 -1408 896
WIRE -1296 912 -1296 896
WIRE -1232 912 -1232 896
WIRE -1120 912 -1120 896
WIRE -1056 912 -1056 896
WIRE -960 912 -960 896
WIRE -896 912 -896 896
WIRE -800 976 -800 960
WIRE -736 976 -736 960
WIRE -592 976 -592 960
WIRE -528 976 -528 960
WIRE -1472 992 -1472 976
WIRE -1408 992 -1408 976
WIRE -1296 992 -1296 976
WIRE -1232 992 -1232 976
WIRE -1120 992 -1120 976
WIRE -1056 992 -1056 976
WIRE -960 992 -960 976
WIRE -896 992 -896 976
FLAG 192 -224 0
FLAG 128 -208 offs
IOPIN 128 -208 In
FLAG 48 -288 in-2
FLAG -256 -160 0
FLAG -240 -384 JFET_VCC2
FLAG -336 -320 G2mod1
FLAG 208 -320 Op+5V
FLAG 224 -224 Op+5V
FLAG -240 -288 S2mod1
FLAG -256 128 0
FLAG -240 -96 JFET_VCC3
FLAG -336 -32 G2mod2
FLAG -176 0 S2mod2
FLAG -640 -192 pin2
FLAG -976 -192 pin2
FLAG -1008 0 0
FLAG -800 -352 0
FLAG -736 592 0
FLAG -1472 992 0
FLAG -1408 992 0
FLAG -1360 672 0
FLAG -1280 672 0
FLAG -1168 576 0
FLAG -1472 768 +5V
FLAG -672 480 +5V
FLAG -1296 992 0
FLAG -1232 992 0
FLAG -1296 768 +5V
FLAG -1232 896 Op+5V
FLAG -1072 544 offs
IOPIN -1072 544 Out
FLAG -1472 672 0
FLAG -912 592 0
FLAG -848 480 offs_ide
FLAG -1408 896 JFET_VCC
FLAG -1120 992 0
FLAG -1056 992 0
FLAG -1120 768 +5V
FLAG -1056 896 Op2+5V
FLAG -960 992 0
FLAG -896 992 0
FLAG -960 768 +5V
FLAG -896 896 Op3+5V
FLAG -1168 496 Op3+5V
FLAG -592 976 0
FLAG -528 976 0
FLAG -592 752 +5V
FLAG -528 880 JFET_VCC3
FLAG -800 976 0
FLAG -736 976 0
FLAG -800 752 +5V
FLAG -736 880 JFET_VCC2
FLAG -544 48 0
FLAG -544 -320 0
SYMBOL LTC6252 208 -272 R0
SYMATTR InstName U1
SYMBOL res -272 -272 R0
SYMATTR InstName Rs1
SYMATTR Value 1k
SYMBOL res 240 -400 R90
WINDOW 0 0 56 VBottom 2
WINDOW 3 32 56 VTop 2
SYMATTR InstName R1
SYMATTR Value 33
SYMBOL cap 336 -400 R90
WINDOW 0 0 32 VBottom 2
WINDOW 3 32 32 VTop 2
SYMATTR InstName C1
SYMATTR Value 47p
SYMBOL njf -304 -384 R0
WINDOW 3 57 57 Left 2
SYMATTR InstName J1
SYMATTR Value BF861C
SYMBOL res -64 -304 R90
WINDOW 0 0 56 VBottom 2
WINDOW 3 32 56 VTop 2
SYMATTR InstName R2
SYMATTR Value {100t*J1+1u}
SYMBOL res 0 -16 R90
WINDOW 0 0 56 VBottom 2
WINDOW 3 32 56 VTop 2
SYMATTR InstName R3
SYMATTR Value {100t*(1-J1)+1u}
SYMBOL res -272 16 R0
SYMATTR InstName Rs2
SYMATTR Value 1k
SYMBOL njf -304 -96 R0
WINDOW 3 57 57 Left 2
SYMATTR InstName J2
SYMATTR Value JBF862
SYMBOL res -352 -336 R90
WINDOW 0 0 56 VBottom 2
WINDOW 3 32 56 VTop 2
SYMATTR InstName R4
SYMATTR Value {100t*J1+1u}
SYMBOL res -352 -48 R90
WINDOW 0 0 56 VBottom 2
WINDOW 3 32 56 VTop 2
SYMATTR InstName R5
SYMATTR Value {100t*(1-J1)+1u}
SYMBOL diode -784 -64 R180
WINDOW 0 24 72 Left 2
WINDOW 3 24 0 Left 2
SYMATTR InstName D1
SYMBOL current -1008 -128 R0
WINDOW 3 -58 161 Left 2
WINDOW 123 -58 189 Left 2
WINDOW 39 0 0 Left 2
WINDOW 0 14 82 Left 2
SYMATTR Value SINE(0 100e-9 {fsig})
SYMATTR Value2 AC 1
SYMATTR InstName I1
SYMBOL cap -912 -128 R0
SYMATTR InstName C2
SYMATTR Value 70p
SYMBOL current -800 -336 R0
WINDOW 3 -280 94 Left 2
WINDOW 123 41 35 Left 2
WINDOW 39 0 0 Left 2
WINDOW 0 44 5 Left 2
SYMATTR Value PULSE(0 {pin_ext_bias} 10u)
SYMATTR InstName I2
SYMBOL current -1120 -128 R0
WINDOW 3 -79 70 Left 2
WINDOW 123 -69 -7 Left 2
WINDOW 39 0 0 Left 2
WINDOW 0 -79 39 Left 2
SYMATTR Value 400n
SYMATTR InstName I3
SYMBOL voltage -736 496 R0
SYMATTR InstName V1
SYMATTR Value 5
SYMBOL cap -1488 912 R0
SYMATTR InstName C3
SYMATTR Value 10nF
SYMBOL cap -1424 912 R0
SYMATTR InstName C4
SYMATTR Value 1µ
SYMBOL cap -1376 576 R0
SYMATTR InstName C5
SYMATTR Value 1µ
SYMBOL res -1296 560 R0
SYMATTR InstName R6
SYMATTR Value 10k
SYMBOL res -1472 528 R270
WINDOW 0 32 56 VTop 2
WINDOW 3 0 56 VBottom 2
SYMATTR InstName R7
SYMATTR Value 10k
SYMBOL res -1488 768 R0
SYMATTR InstName R8
SYMATTR Value 22
SYMBOL AD8656 -1168 480 R0
WINDOW 3 -32 -63 Left 2
SYMATTR InstName U2
SYMBOL cap -1312 912 R0
SYMATTR InstName C6
SYMATTR Value 10nF
SYMBOL cap -1248 912 R0
SYMATTR InstName C7
SYMATTR Value 1µ
SYMBOL res -1312 768 R0
SYMATTR InstName R9
SYMATTR Value 22
SYMBOL voltage -1472 576 R0
WINDOW 123 0 0 Left 2
WINDOW 39 24 44 Left 2
SYMATTR InstName V2
SYMATTR Value 3
SYMBOL voltage -912 496 R0
WINDOW 123 0 0 Left 2
WINDOW 39 24 44 Left 2
SYMATTR InstName V3
SYMATTR Value 1.5
SYMBOL cap -1136 912 R0
SYMATTR InstName C8
SYMATTR Value 10nF
SYMBOL cap -1072 912 R0
SYMATTR InstName C9
SYMATTR Value 1µ
SYMBOL res -1136 768 R0
SYMATTR InstName R10
SYMATTR Value 22
SYMBOL cap -976 912 R0
SYMATTR InstName C10
SYMATTR Value 10nF
SYMBOL cap -912 912 R0
SYMATTR InstName C11
SYMATTR Value 1µ
SYMBOL res -976 768 R0
SYMATTR InstName R11
SYMATTR Value 22
SYMBOL cap -608 896 R0
SYMATTR InstName C12
SYMATTR Value 10nF
SYMBOL cap -544 896 R0
SYMATTR InstName C13
SYMATTR Value 1µ
SYMBOL res -608 752 R0
SYMATTR InstName R12
SYMATTR Value .1
SYMBOL cap -816 896 R0
SYMATTR InstName C14
SYMATTR Value 10nF
SYMBOL cap -752 896 R0
SYMATTR InstName C15
SYMATTR Value 1µ
SYMBOL res -816 752 R0
SYMATTR InstName R13
SYMATTR Value 5
SYMBOL Misc\\jumper -512 -96 R0
SYMATTR InstName X1
SYMBOL Misc\\jumper 96 -80 R90
SYMATTR InstName X2
SYMBOL Misc\\jumper -32 -352 R0
SYMATTR InstName X3
SYMBOL Misc\\jumper -512 -336 R0
SYMATTR InstName X4
TEXT -112 96 Left 2 !.param J1=1\n.step param J1 list 0 1
TEXT -848 128 Left 2 !.ac oct 100 1 10meg
TEXT -920 248 Left 2 !.param pin_ext_bias = 300n\n.param Rin=1m\n.param fsig = 10k
TEXT -1072 -344 Left 2 ;PIN Dioden- Modell
TEXT -992 200 Left 2 ;.step param pin_ext_bias list 300n 0
RECTANGLE Normal -704 64 -1232 -368 2
