Version 4
SHEET 1 1652 680
WIRE -1584 -1552 -1712 -1552
WIRE -1232 -1536 -1232 -1552
WIRE -1056 -1536 -1056 -1552
WIRE -896 -1536 -896 -1552
WIRE -1584 -1504 -1584 -1552
WIRE -1712 -1488 -1712 -1552
WIRE -1360 -1440 -1376 -1440
WIRE -672 -1440 -736 -1440
WIRE -656 -1440 -672 -1440
WIRE -1232 -1424 -1232 -1456
WIRE -1168 -1424 -1232 -1424
WIRE -1056 -1424 -1056 -1456
WIRE -992 -1424 -1056 -1424
WIRE -896 -1424 -896 -1456
WIRE -832 -1424 -896 -1424
WIRE -1376 -1408 -1376 -1440
WIRE -1232 -1408 -1232 -1424
WIRE -1168 -1408 -1168 -1424
WIRE -1056 -1408 -1056 -1424
WIRE -992 -1408 -992 -1424
WIRE -896 -1408 -896 -1424
WIRE -832 -1408 -832 -1424
WIRE -736 -1408 -736 -1440
WIRE -1712 -1376 -1712 -1408
WIRE -1584 -1376 -1584 -1424
WIRE -1232 -1328 -1232 -1344
WIRE -1168 -1328 -1168 -1344
WIRE -1056 -1328 -1056 -1344
WIRE -992 -1328 -992 -1344
WIRE -896 -1328 -896 -1344
WIRE -832 -1328 -832 -1344
WIRE -544 -1184 -960 -1184
WIRE 64 -1184 -464 -1184
WIRE -1328 -1120 -1328 -1136
WIRE -1056 -1104 -1104 -1104
WIRE -1024 -1104 -1056 -1104
WIRE -1104 -1072 -1104 -1104
WIRE -576 -1072 -656 -1072
WIRE -384 -1072 -512 -1072
WIRE -1120 -1056 -1136 -1056
WIRE -1040 -1056 -1072 -1056
WIRE -1024 -1056 -1040 -1056
WIRE -256 -1008 -272 -1008
WIRE -160 -1008 -176 -1008
WIRE -128 -1008 -160 -1008
WIRE 64 -1008 64 -1184
WIRE 64 -1008 -64 -1008
WIRE -1536 -976 -1648 -976
WIRE -1504 -976 -1536 -976
WIRE -1424 -976 -1504 -976
WIRE -1328 -976 -1328 -1040
WIRE -1328 -976 -1424 -976
WIRE -1136 -976 -1136 -1056
WIRE -1136 -976 -1328 -976
WIRE -1056 -976 -1136 -976
WIRE -960 -976 -960 -1184
WIRE -960 -976 -976 -976
WIRE -656 -976 -656 -1072
WIRE -656 -976 -960 -976
WIRE -592 -976 -656 -976
WIRE -384 -976 -384 -1072
WIRE -384 -976 -512 -976
WIRE -16 -960 -32 -960
WIRE -960 -944 -960 -976
WIRE -32 -944 -32 -960
WIRE -160 -928 -160 -1008
WIRE -64 -928 -160 -928
WIRE -1648 -912 -1648 -976
WIRE -1536 -912 -1536 -976
WIRE -1424 -912 -1424 -976
WIRE -1328 -912 -1328 -976
WIRE -816 -912 -832 -912
WIRE -800 -912 -816 -912
WIRE -608 -912 -656 -912
WIRE -480 -912 -528 -912
WIRE -384 -912 -384 -976
WIRE -384 -912 -416 -912
WIRE 64 -912 64 -1008
WIRE 64 -912 0 -912
WIRE -64 -896 -160 -896
WIRE -32 -864 -32 -880
WIRE -960 -848 -960 -880
WIRE -912 -848 -960 -848
WIRE -880 -848 -912 -848
WIRE -544 -848 -560 -848
WIRE -560 -832 -560 -848
WIRE -816 -816 -832 -816
WIRE -784 -816 -816 -816
WIRE -704 -816 -720 -816
WIRE -656 -816 -656 -912
WIRE -656 -816 -704 -816
WIRE -576 -816 -656 -816
WIRE -1648 -800 -1648 -832
WIRE -1536 -800 -1536 -832
WIRE -1536 -800 -1648 -800
WIRE -1424 -800 -1424 -848
WIRE -1424 -800 -1536 -800
WIRE -1328 -800 -1328 -848
WIRE -1328 -800 -1424 -800
WIRE -384 -800 -384 -912
WIRE -384 -800 -512 -800
WIRE -320 -800 -384 -800
WIRE -256 -800 -320 -800
WIRE -160 -800 -160 -896
WIRE -160 -800 -176 -800
WIRE -128 -800 -160 -800
WIRE -48 -800 -64 -800
WIRE -1536 -784 -1536 -800
WIRE -832 -784 -832 -816
WIRE -576 -784 -624 -784
WIRE -560 -752 -560 -768
WIRE -528 -752 -528 -768
WIRE -624 -736 -624 -784
WIRE -832 -688 -832 -704
WIRE -320 -688 -320 -800
WIRE -192 -688 -320 -688
WIRE -160 -688 -192 -688
WIRE -192 -656 -272 -656
WIRE -160 -656 -192 -656
WIRE -272 -640 -272 -656
WIRE -320 -624 -320 -688
WIRE -288 -624 -320 -624
WIRE -192 -624 -240 -624
WIRE -160 -624 -192 -624
FLAG -736 -1328 0
FLAG -672 -1440 +5V
FLAG -1232 -1328 0
FLAG -1168 -1328 0
FLAG -1232 -1552 +5V
FLAG -1168 -1424 Op+5V
FLAG -1360 -1440 offs
IOPIN -1360 -1440 Out
FLAG 64 -912 out_int2
FLAG -560 -752 0
FLAG -624 -736 offs
IOPIN -624 -736 In
FLAG -48 -800 offs
IOPIN -48 -800 In
FLAG -272 -1008 offs
IOPIN -272 -1008 In
FLAG -704 -816 in-2
FLAG -1376 -1328 0
FLAG -832 -688 0
FLAG -816 -912 JFET_VCC2
FLAG -32 -864 0
FLAG -912 -848 G2
FLAG -1504 -976 pin2
FLAG -1536 -784 0
FLAG -1328 -1136 0
FLAG -192 -688 U_F2
FLAG -544 -848 Op+5V
FLAG -528 -752 Op+5V
FLAG -1056 -1328 0
FLAG -992 -1328 0
FLAG -1056 -1552 +5V
FLAG -992 -1424 Op2+5V
FLAG -16 -960 Op2+5V
FLAG -192 -656 U_F2--
FLAG -192 -624 U_F2~
FLAG -816 -816 S2
FLAG -896 -1328 0
FLAG -832 -1328 0
FLAG -896 -1552 +5V
FLAG -832 -1424 JFET_VCC2
FLAG -1712 -1376 0
FLAG -1584 -1376 0
FLAG -1040 -1056 U_F4~
FLAG -1056 -1104 U_F4--
SYMBOL voltage -736 -1424 R0
SYMATTR InstName V1
SYMATTR Value 5
SYMBOL cap -1248 -1408 R0
SYMATTR InstName C9
SYMATTR Value 10nF
SYMBOL cap -1184 -1408 R0
SYMATTR InstName C10
SYMATTR Value 1µ
SYMBOL res -1248 -1552 R0
SYMATTR InstName R12
SYMATTR Value 22
SYMBOL res -496 -992 R90
WINDOW 0 0 56 VBottom 2
WINDOW 3 -28 -16 VTop 2
SYMATTR InstName R13
SYMATTR Value 2.2meg
SYMBOL LTC6252 -544 -800 R0
SYMATTR InstName U4
SYMBOL res -272 -1024 M90
WINDOW 0 0 56 VBottom 2
WINDOW 3 32 56 VTop 2
SYMATTR InstName R14
SYMATTR Value 100k
SYMBOL res -160 -784 M270
WINDOW 0 32 56 VTop 2
WINDOW 3 0 56 VBottom 2
SYMATTR InstName R15
SYMATTR Value 100k
SYMBOL cap -64 -784 M270
WINDOW 0 32 32 VTop 2
WINDOW 3 0 32 VBottom 2
SYMATTR InstName C11
SYMATTR Value 3.3nF
SYMBOL cap -128 -1024 M90
WINDOW 0 0 32 VBottom 2
WINDOW 3 32 32 VTop 2
WINDOW 39 -199 70 VBottom 2
SYMATTR InstName C12
SYMATTR Value 3.3nF
SYMBOL res -448 -1200 R90
WINDOW 0 0 56 VBottom 2
WINDOW 3 32 56 VTop 2
SYMATTR InstName R16
SYMATTR Value 1meg
SYMBOL voltage -1376 -1424 R0
WINDOW 123 0 0 Left 2
WINDOW 39 24 44 Left 2
SYMATTR InstName V2
SYMATTR Value 3
SYMBOL res -848 -800 R0
SYMATTR InstName Rs2
SYMATTR Value 1k
SYMBOL cap -512 -1088 R90
WINDOW 0 0 32 VBottom 2
WINDOW 3 32 32 VTop 2
SYMATTR InstName C3
SYMATTR Value 47p
SYMBOL res -960 -992 R90
WINDOW 0 0 56 VBottom 2
WINDOW 3 32 56 VTop 2
SYMATTR InstName in2
SYMATTR Value 1m
SYMBOL schottky -1312 -848 R180
WINDOW 0 24 72 Left 2
WINDOW 3 24 0 Left 2
SYMATTR InstName D2
SYMATTR Value MBRS130L
SYMATTR Description Diode
SYMATTR Type diode
SYMBOL current -1536 -912 R0
WINDOW 3 -58 161 Left 2
WINDOW 123 -58 189 Left 2
WINDOW 39 0 0 Left 2
WINDOW 0 14 82 Left 2
SYMATTR Value SINE(0 10e-9 {fsig})
SYMATTR Value2 AC 1
SYMATTR InstName I3
SYMBOL cap -1440 -912 R0
SYMATTR InstName C13
SYMATTR Value 70f
SYMBOL current -1328 -1120 R0
WINDOW 3 -280 94 Left 2
WINDOW 123 41 35 Left 2
WINDOW 39 0 0 Left 2
WINDOW 0 44 5 Left 2
SYMATTR Value PULSE(0 {pin_ext_bias} 10u)
SYMATTR InstName I4
SYMBOL res -512 -928 R90
WINDOW 0 0 56 VBottom 2
WINDOW 3 32 56 VTop 2
SYMATTR InstName R5
SYMATTR Value 33
SYMBOL cap -416 -928 R90
WINDOW 0 0 32 VBottom 2
WINDOW 3 32 32 VTop 2
SYMATTR InstName C14
SYMATTR Value 47p
SYMBOL cap -1072 -1408 R0
SYMATTR InstName C2
SYMATTR Value 10nF
SYMBOL cap -1008 -1408 R0
SYMATTR InstName C4
SYMATTR Value 1µ
SYMBOL res -1072 -1552 R0
SYMATTR InstName R1
SYMATTR Value 5
SYMBOL njf -880 -912 R0
WINDOW 3 -60 98 Left 2
SYMATTR Value BF861A
SYMATTR InstName J1
SYMBOL mixed2ac_dc_small -288 -608 R0
SYMATTR InstName X1
SYMBOL current -1648 -912 R0
WINDOW 3 -79 70 Left 2
WINDOW 123 -69 -7 Left 2
WINDOW 39 0 0 Left 2
WINDOW 0 -79 39 Left 2
SYMATTR Value 400n
SYMATTR InstName I1
SYMBOL cap -912 -1408 R0
SYMATTR InstName C15
SYMATTR Value 10nF
SYMBOL cap -848 -1408 R0
SYMATTR InstName C18
SYMATTR Value 1µ
SYMBOL res -912 -1552 R0
SYMATTR InstName R18
SYMATTR Value 5
SYMBOL Misc\\jumper -752 -880 R0
SYMATTR InstName X2
SYMBOL Misc\\jumper -896 -912 M270
SYMATTR InstName X3
SYMBOL AD8656 -32 -976 R0
WINDOW 3 -95 111 Left 2
SYMATTR InstName U2
SYMBOL voltage -1712 -1504 R0
WINDOW 123 0 0 Left 2
WINDOW 39 24 44 Left 2
SYMATTR InstName V5
SYMATTR Value SINE(0 1 100)
SYMBOL res -1600 -1520 R0
SYMATTR InstName R24
SYMATTR Value 100
SYMBOL mixed2ac_dc_small -1120 -1040 R0
SYMATTR InstName X4
TEXT -1280 -656 Left 2 !.tran 100m
TEXT -520 -1536 Left 2 ;K=Idss/Vp^2\nr0=1/(lambda*Id0)\nId=k*(Ugs-Vp)^2 \n(aktiver bereich, Vgs>0 && Uds>Ugs-Vp)\n \nlabda 37m --> r0 berechnen von jfet \nr0: Last am feedback- knoten\nr0=1/(lambda*Id0)
TEXT -1352 -536 Left 2 !.param pin_ext_bias = 300n\n.param Rin=1m\n.param fsig = 10k
TEXT -1600 -1128 Left 2 ;PIN Dioden- Modell
TEXT -1424 -584 Left 2 ;.step param pin_ext_bias list 300n 0
TEXT -920 -600 Left 2 !.param JP = 0
RECTANGLE Normal -1232 -720 -1760 -1152 2
