Version 4
SHEET 1 932 980
WIRE 496 -176 480 -176
WIRE 624 -176 496 -176
WIRE 496 -160 496 -176
WIRE 480 -112 480 -176
WIRE 624 -112 624 -176
WIRE -624 -16 -704 -16
WIRE -432 -16 -544 -16
WIRE -320 -16 -432 -16
WIRE -192 -16 -320 -16
WIRE -80 -16 -192 -16
WIRE 32 -16 -80 -16
WIRE 80 -16 32 -16
WIRE 176 -16 160 -16
WIRE 288 -16 176 -16
WIRE 480 0 480 -32
WIRE 624 0 624 -32
WIRE -544 16 -544 -16
WIRE -432 16 -432 -16
WIRE -320 16 -320 -16
WIRE -192 16 -192 -16
WIRE -80 16 -80 -16
WIRE 32 16 32 -16
WIRE 288 16 288 -16
WIRE -704 80 -704 -16
WIRE -544 80 -544 48
WIRE -432 80 -432 48
WIRE -320 80 -320 48
WIRE 288 80 288 48
WIRE -624 96 -624 -16
WIRE -192 96 -192 48
WIRE -80 96 -80 48
WIRE 32 96 32 48
WIRE -704 240 -704 160
WIRE -624 240 -624 144
WIRE -624 240 -704 240
WIRE -544 240 -544 160
WIRE -432 240 -432 160
WIRE -432 240 -544 240
WIRE -320 240 -320 160
WIRE -320 240 -432 240
WIRE -192 240 -192 160
WIRE -192 240 -320 240
WIRE -80 240 -80 160
WIRE -80 240 -192 240
WIRE 32 240 32 176
WIRE 32 240 -80 240
WIRE 176 240 32 240
WIRE 288 240 288 160
WIRE 288 240 176 240
WIRE -704 272 -704 240
WIRE 288 320 288 240
WIRE -704 384 -704 352
WIRE 368 528 272 528
WIRE 400 528 368 528
WIRE 272 576 272 528
WIRE 368 624 368 528
WIRE 272 672 272 656
WIRE 368 720 368 688
WIRE 368 816 368 800
WIRE 368 832 368 816
FLAG 176 -16 A
FLAG 176 240 C
FLAG 288 320 0
FLAG -704 384 0
FLAG 480 0 0
FLAG 624 0 0
FLAG -208 608 0
FLAG 368 816 0
FLAG 272 672 0
SYMBOL source-I -432 80 R0
WINDOW 123 0 0 Left 2
WINDOW 39 0 0 Left 2
SYMATTR InstName I1
SYMATTR Value {Iphc}
SYMBOL cap -96 96 R0
SYMATTR InstName Cd
SYMATTR Value {Cd}
SYMBOL res 16 80 R0
WINDOW 0 38 20 Left 2
SYMATTR InstName Rsh
SYMATTR Value {Rsh}
SYMBOL res 176 -32 R90
WINDOW 0 0 56 VBottom 2
WINDOW 3 32 56 VTop 2
SYMATTR InstName Rs
SYMATTR Value {Rs}
SYMBOL res 272 64 R0
SYMATTR InstName RL
SYMATTR Value {RL}
SYMBOL arrow_curr -432 32 M180
SYMATTR InstName Iphc
SYMBOL arrow_curr -192 32 R0
SYMATTR InstName Id
SYMBOL arrow_curr -80 32 R0
SYMATTR InstName I_Cd
SYMBOL arrow_curr 32 32 R0
SYMATTR InstName Ish
SYMBOL arrow_curr 288 32 R0
SYMATTR InstName Io
SYMBOL source-I -320 160 M180
WINDOW 0 27 66 Left 2
WINDOW 3 23 8 Left 2
WINDOW 123 0 0 Left 2
WINDOW 39 0 0 Left 2
SYMATTR InstName I2
SYMATTR Value {Iro}
SYMBOL crtl-I-I -544 64 R0
SYMATTR InstName U1
SYMBOL res -688 256 M0
SYMATTR InstName R1
SYMATTR Value 10meg
SYMBOL source-I -704 80 M0
WINDOW 3 -187 406 Left 2
WINDOW 123 -48 378 Left 2
WINDOW 39 0 0 Left 2
SYMATTR Value SINE(0 300n 10k 100u)
SYMATTR Value2 AC 100n
SYMATTR InstName I3
SYMBOL arrow_curr -320 32 R0
SYMATTR InstName Iro1
SYMBOL arrow_curr -544 32 M180
SYMATTR InstName IphMod
SYMBOL Function-V -208 512 R0
WINDOW 3 -137 194 Left 2
SYMATTR Value V=1V*Vo-2.6mV*(TEMP-27)
SYMATTR InstName B1
SYMBOL source-I 480 -32 M180
WINDOW 0 27 66 Left 2
WINDOW 3 23 8 Left 2
WINDOW 123 0 0 Left 2
WINDOW 39 0 0 Left 2
SYMATTR InstName I4
SYMATTR Value {Iro}
SYMBOL source-V 624 -128 R0
WINDOW 123 0 0 Left 2
WINDOW 39 0 0 Left 2
SYMATTR InstName V1
SYMATTR Value PULSE(0 10m 0 400u)
SYMBOL diode -208 96 R0
SYMATTR InstName D1
SYMATTR Value Dx
SYMBOL diode 384 688 R180
WINDOW 0 24 64 Left 2
WINDOW 3 24 0 Left 2
SYMATTR InstName D2
SYMATTR Value Dx
SYMBOL source-V 272 560 R0
WINDOW 123 0 0 Left 2
WINDOW 39 0 0 Left 2
SYMATTR InstName V2
SYMATTR Value 20
SYMBOL source-V 368 704 R0
WINDOW 123 0 0 Left 2
WINDOW 39 0 0 Left 2
SYMATTR InstName V3
SYMATTR Value 20
TEXT -656 -168 Left 2 ;Measurement Techniques\nVishay Semiconductors\nhttp://www.vishay.com/docs/80085/measurem.pdf
TEXT -624 296 Left 1 !.param Iphc = 0nA  ; photostrom (konstante lichtquelle)\n.param Iro = 30nA  ; reverse dark current\n.param Ev = 1k ; illumination [lx] (testcondition) or\n.param Ee = 1  ; irradiance [mW/cm2]\n.param Cd = 50pF  ; ersatzkapazität (Cj, parasitäre...)\n.param Rsh = {Vo/Ik}  ; shunt res. (dark resistance)
TEXT -248 -176 Left 2 !.dc I3 -1u 70u 10n
TEXT 344 192 Left 2 !.param RL=100t
TEXT 176 104 Left 2 ;Vo
TEXT 352 256 Left 2 ;.step param RL list 1000t 1u
TEXT -128 296 Left 1 !* VBPW34\n***************\n.param Ik = 55uA  ; Short circuit current\n.param Vo = 350mV  ; Open circuit Voltage\n.param Rs = {Vo/Ik}  ; series rec.\n.param Vf = 1.2V  ; forward voltage @ If=50mA
TEXT -168 432 Left 2 !.model Dx D (Is={50m/exp(Vf/VT)})
TEXT 264 368 Left 1 !.param boltz = 1.38e-23\n.param Theta = {273+TEMP}\n.param eq = 1.602e-19As\n.param VT={boltz*Theta/eq}
LINE Normal 176 192 176 16
LINE Normal 160 176 176 192
LINE Normal 192 176 160 176
LINE Normal 176 192 192 176
RECTANGLE Normal 224 464 -656 -80 2
