Version 4
SHEET 1 920 680
WIRE 576 -160 560 -160
WIRE 592 -160 576 -160
WIRE 624 -160 592 -160
WIRE 624 -128 624 -160
WIRE 496 -96 496 -112
WIRE 496 -80 496 -96
WIRE -112 -16 -160 -16
WIRE 624 -16 624 -48
WIRE 176 0 144 0
WIRE 496 16 496 0
WIRE -160 32 -160 -16
WIRE 448 48 352 48
WIRE 592 48 544 48
WIRE 176 64 144 64
WIRE 544 80 544 48
WIRE -160 144 -160 112
WIRE -112 208 -160 208
WIRE 544 208 544 160
WIRE -160 256 -160 208
WIRE -160 368 -160 336
FLAG 544 208 0
FLAG 592 48 sq
IOPIN 592 48 Out
FLAG -160 144 0
FLAG -112 -16 s0
FLAG 144 0 s0
FLAG -160 368 0
FLAG -112 208 fs
FLAG 144 64 fs
FLAG 448 48 vs0
FLAG 496 16 0
FLAG 624 -16 0
FLAG 592 -160 o1
FLAG 496 -96 o2
FLAG 496 -208 s0
SYMBOL bv 544 64 R0
SYMATTR InstName B1
SYMATTR Value V=int(V(vs0))
SYMBOL voltage -160 16 R0
WINDOW 123 0 0 Left 2
WINDOW 39 0 0 Left 2
SYMATTR InstName V1
SYMATTR Value SINE(0 7.5 {f0})
SYMBOL voltage -160 240 R0
WINDOW 123 0 0 Left 2
WINDOW 39 0 0 Left 2
SYMATTR InstName V2
SYMATTR Value PULSE(0 1 0 1n 1n 10u {1/fs})
SYMBOL SpecialFunctions\\sample 256 32 R0
SYMATTR InstName A1
SYMBOL res 480 -96 R0
SYMATTR InstName R1
SYMATTR Value 1k
SYMBOL res 608 -144 R0
SYMATTR InstName R2
SYMATTR Value 1k
SYMBOL source-Vmarker 416 -160 R0
SYMATTR Value V=2.5V
SYMATTR InstName U2
SYMBOL Miscel\\Dac8408 464 -144 R0
SYMATTR InstName U1
TEXT -176 -160 Left 2 !.tran 0 3m 0 1u
TEXT -176 -128 Left 2 !.options plotwinsize=0
TEXT -176 -96 Left 2 !.param f0=0.5k fs=20k
TEXT 104 264 Left 2 ;.step param DE list 0 0.25 0.5 1
