Version 4
SHEET 1 1580 1412
WIRE -576 -288 -576 -352
WIRE -576 -176 -576 -208
WIRE -576 -32 -576 -96
WIRE 16 48 -160 48
WIRE 64 48 16 48
WIRE 160 48 144 48
WIRE 256 48 160 48
WIRE 368 48 336 48
WIRE 480 48 368 48
WIRE 1040 48 560 48
WIRE 1040 96 1040 48
WIRE 1184 112 1088 112
WIRE -160 144 -160 48
WIRE 224 144 224 128
WIRE 160 160 160 48
WIRE 192 160 160 160
WIRE 368 176 368 48
WIRE 368 176 256 176
WIRE 192 192 160 192
WIRE 224 224 224 208
WIRE 1040 224 1040 176
WIRE 1040 224 848 224
WIRE 160 240 160 192
WIRE 1040 288 1040 224
WIRE 1232 304 1088 304
WIRE -160 352 -160 304
WIRE 16 400 16 48
WIRE 1040 400 1040 368
WIRE 1040 400 16 400
WIRE 32 592 32 576
WIRE -672 608 -736 608
WIRE -576 608 -592 608
WIRE -480 608 -576 608
WIRE -368 608 -400 608
WIRE -208 608 -240 608
WIRE 0 608 -128 608
WIRE 192 624 64 624
WIRE 1184 624 1184 112
WIRE 1184 624 272 624
WIRE 0 640 -32 640
WIRE 32 672 32 656
WIRE -512 704 -512 688
WIRE -576 720 -576 608
WIRE -544 720 -576 720
WIRE -368 736 -368 608
WIRE -368 736 -480 736
WIRE -240 736 -240 608
WIRE -240 736 -368 736
WIRE -32 736 -32 640
WIRE -32 736 -64 736
WIRE -736 752 -736 608
WIRE -688 752 -736 752
WIRE -576 752 -624 752
WIRE -544 752 -576 752
WIRE -512 784 -512 768
WIRE -576 800 -576 752
WIRE 32 816 32 800
WIRE -32 832 -32 736
WIRE 0 832 -32 832
WIRE 1232 848 1232 304
WIRE 1232 848 64 848
WIRE -240 864 -240 736
WIRE 0 864 -240 864
WIRE 32 896 32 880
WIRE 848 960 848 224
WIRE 1136 1024 992 1024
WIRE 1056 1104 1056 1088
WIRE 992 1120 992 1024
WIRE 1024 1120 992 1120
WIRE 1136 1136 1136 1024
WIRE 1136 1136 1088 1136
WIRE 848 1152 848 1040
WIRE 864 1152 848 1152
WIRE 992 1152 944 1152
WIRE 1024 1152 992 1152
WIRE 992 1184 992 1152
WIRE 1056 1184 1056 1168
WIRE 992 1296 992 1248
FLAG -576 -208 0
FLAG -576 -32 VSS
FLAG -576 -352 VDD
FLAG 224 128 VDD
FLAG 224 224 VSS
FLAG 160 320 0
FLAG -160 352 0
FLAG -512 688 VDD
FLAG -512 784 VSS
FLAG -576 880 0
FLAG 32 576 VDD
FLAG 32 672 VSS
FLAG 32 800 VDD
FLAG 32 896 VSS
FLAG -64 736 0
FLAG 1056 1088 VDD
FLAG 1056 1184 VSS
FLAG 992 1296 0
FLAG 1088 160 0
FLAG 1088 352 0
SYMBOL voltage -576 -304 R0
WINDOW 123 0 0 Left 2
WINDOW 39 0 0 Left 2
SYMATTR InstName V1
SYMATTR Value {Vsup}
SYMBOL voltage -576 -192 R0
WINDOW 123 0 0 Left 2
WINDOW 39 0 0 Left 2
SYMATTR InstName V2
SYMATTR Value {Vsup}
SYMBOL res 160 32 R90
WINDOW 0 0 56 VBottom 2
WINDOW 3 32 56 VTop 2
SYMATTR InstName R1
SYMATTR Value 5k
SYMBOL res 352 32 R90
WINDOW 0 0 56 VBottom 2
WINDOW 3 32 56 VTop 2
SYMATTR InstName R2
SYMATTR Value 5k
SYMBOL res 144 224 R0
SYMATTR InstName R3
SYMATTR Value 2.5k
SYMBOL voltage -160 128 R0
WINDOW 123 0 0 Left 2
WINDOW 39 0 0 Left 2
SYMATTR InstName V3
SYMATTR Value 0
SYMBOL voltage -160 208 R0
WINDOW 123 0 0 Left 2
WINDOW 39 0 0 Left 2
SYMATTR InstName V4
SYMATTR Value SINE(0 1 100)
SYMBOL res -576 592 R90
WINDOW 0 0 56 VBottom 2
WINDOW 3 32 56 VTop 2
SYMATTR InstName R4
SYMATTR Value 1k
SYMBOL res -384 592 R90
WINDOW 0 0 56 VBottom 2
WINDOW 3 32 56 VTop 2
SYMATTR InstName R5
SYMATTR Value 1k
SYMBOL res -592 784 R0
SYMATTR InstName R6
SYMATTR Value {Rsync}
SYMBOL cap -624 736 R90
WINDOW 0 0 32 VBottom 2
WINDOW 3 32 32 VTop 2
SYMATTR InstName C1
SYMATTR Value 220n
SYMBOL voltage -112 608 R90
WINDOW 0 -32 56 VBottom 2
WINDOW 3 32 56 VTop 2
WINDOW 123 0 0 Left 2
WINDOW 39 0 0 Left 2
SYMATTR InstName V5
SYMATTR Value 0
SYMBOL voltage 288 624 R90
WINDOW 0 -32 56 VBottom 2
WINDOW 3 32 56 VTop 2
WINDOW 123 0 0 Left 2
WINDOW 39 0 0 Left 2
SYMATTR InstName V6
SYMATTR Value 0
SYMBOL sw 1040 192 R180
SYMATTR InstName S1
SYMATTR Value CSW
SYMBOL sw 1040 384 R180
SYMATTR InstName S2
SYMATTR Value CSW
SYMBOL res 960 1136 R90
WINDOW 0 0 56 VBottom 2
WINDOW 3 32 56 VTop 2
SYMATTR InstName R7
SYMATTR Value 10k
SYMBOL cap 976 1184 R0
SYMATTR InstName C2
SYMATTR Value 10µ
SYMBOL voltage 848 1056 R180
WINDOW 0 24 96 Left 2
WINDOW 3 24 16 Left 2
WINDOW 123 0 0 Left 2
WINDOW 39 0 0 Left 2
SYMATTR InstName V7
SYMATTR Value 0
SYMBOL voltage 576 48 R90
WINDOW 0 -32 56 VBottom 2
WINDOW 3 32 56 VTop 2
WINDOW 123 0 0 Left 2
WINDOW 39 0 0 Left 2
SYMATTR InstName V8
SYMATTR Value 0
SYMBOL EIT_Semiconductors\\op_3 224 176 R0
SYMATTR InstName U1
SYMATTR Value Vp={Vsup} Vm={-Vsup} Ilim=20m
SYMBOL EIT_Semiconductors\\op_3 -512 736 R0
SYMATTR InstName U2
SYMATTR Value Vp={Vsup} Vm={-Vsup} Ilim=20m
SYMBOL EIT_Semiconductors\\op_3 32 624 R0
SYMATTR InstName U3
SYMATTR Value Vp={Vsup} Vm={-Vsup} Ilim=20m
SYMBOL EIT_Semiconductors\\op_3 32 848 R0
SYMATTR InstName U4
SYMATTR Value Vp={Vsup} Vm={-Vsup} Ilim=20m
SYMBOL EIT_Semiconductors\\op_3 1056 1136 R0
SYMATTR InstName U5
SYMATTR Value Vp={Vsup} Vm={-Vsup} Ilim=20m
TEXT 896 -80 Left 2 !.model CSW SW(Ron=.1 Roff=1Meg It=0 Ih=-.5m)
TEXT -672 992 Left 2 !.param Rsync=100k
TEXT -738 1320 Left 2 !.tran 10m
TEXT -400 -184 Left 2 !.param Vsup = 9
