Version 4
SHEET 1 4836 1940
WIRE 2592 -1392 2272 -1392
WIRE 2656 -1392 2592 -1392
WIRE 2272 -1376 2272 -1392
WIRE 2272 -1280 2272 -1296
WIRE 1440 -1104 1376 -1104
WIRE 1552 -1104 1520 -1104
WIRE 1664 -1104 1552 -1104
WIRE 2064 -1104 1744 -1104
WIRE 2656 -1088 2656 -1392
WIRE 2656 -1088 2576 -1088
WIRE 2784 -1088 2656 -1088
WIRE 3088 -1088 2848 -1088
WIRE 3312 -1088 3088 -1088
WIRE 1376 -1056 1376 -1104
WIRE 2064 -992 2064 -1104
WIRE 2176 -992 2064 -992
WIRE 2336 -992 2256 -992
WIRE 2400 -992 2336 -992
WIRE 2480 -992 2400 -992
WIRE 2640 -992 2480 -992
WIRE 2896 -992 2720 -992
WIRE 3040 -992 2896 -992
WIRE 3200 -992 3040 -992
WIRE 2336 -960 2336 -992
WIRE 3040 -960 3040 -992
WIRE 2704 -928 2704 -944
WIRE 3200 -928 3200 -992
WIRE 1184 -896 1184 -944
WIRE 1792 -896 1792 -928
WIRE 1552 -848 1552 -1104
WIRE 1600 -848 1552 -848
WIRE 1760 -848 1600 -848
WIRE 2032 -848 1920 -848
WIRE 2064 -848 2064 -992
WIRE 2064 -848 2032 -848
WIRE 2400 -848 2400 -992
WIRE 1760 -816 1728 -816
WIRE 2336 -816 2336 -896
WIRE 2336 -816 2304 -816
WIRE 2304 -800 2304 -816
WIRE 3040 -800 3040 -896
WIRE 3200 -800 3200 -848
WIRE 3200 -800 3040 -800
WIRE 3248 -800 3248 -864
WIRE 3312 -800 3312 -1088
WIRE 3312 -800 3248 -800
WIRE 1184 -784 1184 -816
WIRE 1600 -784 1552 -784
WIRE 1760 -784 1600 -784
WIRE 2032 -784 1920 -784
WIRE 2064 -784 2032 -784
WIRE 2576 -784 2576 -1088
WIRE 2656 -784 2656 -944
WIRE 2656 -784 2576 -784
WIRE 3200 -752 3200 -800
WIRE 3248 -736 3248 -800
WIRE 1824 -720 1824 -736
WIRE 2336 -720 2336 -816
WIRE 3040 -720 3040 -800
WIRE 1792 -704 1792 -736
WIRE 2656 -672 2656 -784
WIRE 2704 -672 2704 -688
WIRE 2064 -624 2064 -784
WIRE 2176 -624 2064 -624
WIRE 2336 -624 2336 -656
WIRE 2336 -624 2256 -624
WIRE 2400 -624 2400 -784
WIRE 2400 -624 2336 -624
WIRE 2480 -624 2400 -624
WIRE 2640 -624 2480 -624
WIRE 2896 -624 2720 -624
WIRE 3040 -624 3040 -656
WIRE 3040 -624 2896 -624
WIRE 3200 -624 3200 -672
WIRE 3200 -624 3040 -624
WIRE 1392 -528 1360 -528
WIRE 1440 -528 1392 -528
WIRE 1552 -528 1552 -784
WIRE 1552 -528 1520 -528
WIRE 1680 -528 1552 -528
WIRE 2064 -528 2064 -624
WIRE 2064 -528 1760 -528
WIRE 1360 -416 1360 -448
FLAG 1600 -848 inp
FLAG 1600 -784 inm
FLAG 1184 -944 vdd
FLAG 1792 -928 vdd
FLAG 1824 -720 vdd
FLAG 1728 -816 vocm
FLAG 1376 -1056 0
FLAG 1184 -784 0
FLAG 1792 -704 0
FLAG 1360 -416 0
FLAG 1392 -528 IN
FLAG 2272 -1280 0
FLAG 2592 -1392 SW_ACQ
FLAG 2480 -992 AINP
FLAG 2480 -624 AINM
FLAG 2896 -992 ADCP
FLAG 2896 -624 ADCM
FLAG 2704 -928 0
FLAG 2704 -688 0
FLAG 3248 -912 0
FLAG 3248 -688 0
FLAG 3088 -1088 SW_CNV
FLAG 2304 -800 0
FLAG 2032 -848 outp
FLAG 2032 -784 outn
SYMBOL voltage 1184 -912 M0
WINDOW 0 39 27 Left 2
WINDOW 3 40 85 Left 2
WINDOW 123 39 60 Left 2
WINDOW 39 0 0 Left 2
SYMATTR InstName VDD
SYMATTR Value 5V
SYMBOL voltage 1360 -544 M0
WINDOW 0 39 27 Left 2
WINDOW 3 39 55 Left 2
WINDOW 123 39 60 Left 2
WINDOW 39 0 0 Left 2
SYMATTR InstName Vin
SYMATTR Value SINE(0 4V 1k 0 0 90)
SYMBOL res 1760 -1088 M270
WINDOW 0 32 56 VTop 2
WINDOW 3 0 56 VBottom 2
SYMATTR InstName R2
SYMATTR Value 1k
SYMBOL res 1536 -1088 M270
WINDOW 0 32 56 VTop 2
WINDOW 3 0 56 VBottom 2
SYMATTR InstName R3
SYMATTR Value 1k
SYMBOL res 1776 -512 M270
WINDOW 0 32 56 VTop 2
WINDOW 3 0 56 VBottom 2
SYMATTR InstName R6
SYMATTR Value 1k
SYMBOL res 1536 -512 M270
WINDOW 0 32 56 VTop 2
WINDOW 3 0 56 VBottom 2
SYMATTR InstName R7
SYMATTR Value 1k
SYMBOL Opamps\\LTC6362 1824 -816 R0
SYMATTR InstName U1
SYMBOL voltage 2272 -1392 R0
WINDOW 3 36 61 Left 2
WINDOW 123 0 0 Left 2
WINDOW 39 0 0 Left 2
SYMATTR Value PULSE(0 1 670n 1n 1n 330n 1u)
SYMATTR InstName V1
SYMBOL cap 3024 -896 M180
WINDOW 0 24 56 Left 2
WINDOW 3 24 8 Left 2
SYMATTR InstName C1
SYMATTR Value 40p
SYMBOL sw 2736 -992 M270
WINDOW 3 -27 149 VLeft 2
WINDOW 0 26 23 VLeft 2
SYMATTR Value mySW
SYMATTR InstName S1
SYMBOL cap 3056 -720 M0
SYMATTR InstName C2
SYMATTR Value 40p
SYMBOL sw 2736 -624 R90
WINDOW 3 -30 162 VLeft 2
WINDOW 0 24 18 VLeft 2
SYMATTR Value mySW
SYMATTR InstName S2
SYMBOL sw 3200 -944 M0
WINDOW 3 5 108 Left 2
WINDOW 0 11 7 Left 2
SYMATTR Value mySW
SYMATTR InstName S3
SYMBOL Digital\\inv 2784 -1152 R0
SYMATTR InstName A1
SYMBOL sw 3200 -656 R180
WINDOW 3 9 101 Left 2
WINDOW 0 13 8 Left 2
SYMATTR Value mySW
SYMATTR InstName S4
SYMBOL res 2272 -1008 R90
WINDOW 0 0 56 VBottom 2
WINDOW 3 32 56 VTop 2
SYMATTR InstName R1
SYMATTR Value 20
SYMBOL res 2272 -640 R90
WINDOW 0 0 56 VBottom 2
WINDOW 3 32 56 VTop 2
SYMATTR InstName R4
SYMATTR Value 20
SYMBOL cap 2320 -960 R0
SYMATTR InstName C3
SYMATTR Value {cap}
SYMBOL cap 2320 -720 R0
SYMATTR InstName C4
SYMATTR Value {cap}
SYMBOL cap 2384 -848 R0
SYMATTR InstName C5
SYMATTR Value {cap}
TEXT 1608 -424 Left 2 !.tran 1m
TEXT 2664 -840 Left 2 !.model mySw SW(Ron=40 Vt=0.5)
TEXT 2744 -1192 Left 4 ;SAR ADC input
TEXT 2136 -536 Left 2 !.step param cap list 1nF 470pF
RECTANGLE Normal 3376 -544 2528 -1136
