Version 4
SHEET 1 1824 1236
WIRE 640 -128 640 -160
WIRE 816 -128 640 -128
WIRE 944 -128 816 -128
WIRE 1184 -128 944 -128
WIRE 1536 -128 1184 -128
WIRE 816 -112 816 -128
WIRE 944 -96 944 -128
WIRE 1184 -80 1184 -128
WIRE 640 -64 640 -128
WIRE 1536 -32 1536 -128
WIRE 368 -16 304 -16
WIRE 400 -16 368 -16
WIRE 576 -16 544 -16
WIRE 816 -16 816 -32
WIRE 880 -16 816 -16
WIRE 816 0 816 -16
WIRE 1520 0 1376 0
WIRE 304 16 304 -16
WIRE 304 16 240 16
WIRE 368 16 304 16
WIRE 1376 16 1376 0
WIRE 240 32 240 16
WIRE 368 32 368 16
WIRE 544 32 544 -16
WIRE 944 32 944 -16
WIRE 992 32 944 32
WIRE 1104 32 992 32
WIRE 1184 32 1184 0
WIRE 1296 32 1264 32
WIRE 640 48 640 32
WIRE 880 48 880 -16
WIRE 992 48 992 32
WIRE 1104 64 1104 32
WIRE 1296 80 1184 80
WIRE 368 112 368 96
WIRE 368 112 160 112
WIRE 816 112 816 96
WIRE 1376 112 1376 96
WIRE 1536 112 1536 16
WIRE 160 128 160 112
WIRE 992 128 992 112
WIRE 1184 128 1184 80
WIRE 944 144 944 32
WIRE 880 160 880 48
WIRE 896 160 880 160
WIRE 912 160 896 160
WIRE 544 176 544 112
WIRE 608 176 544 176
WIRE 640 176 640 128
WIRE 640 176 608 176
WIRE 816 176 640 176
WIRE 992 176 976 176
WIRE 1104 176 1104 144
WIRE 1104 176 992 176
WIRE 1120 176 1104 176
WIRE 896 192 880 192
WIRE 912 192 896 192
WIRE 1104 208 1104 176
WIRE 160 224 160 208
WIRE 240 224 240 96
WIRE 240 224 160 224
WIRE 640 224 640 176
WIRE 816 224 816 176
WIRE 944 224 944 208
WIRE 240 240 240 224
WIRE 368 240 368 112
WIRE 864 272 848 272
WIRE 880 272 880 192
WIRE 880 272 864 272
WIRE 240 320 240 304
WIRE 304 320 240 320
WIRE 368 320 368 304
WIRE 368 320 304 320
WIRE 640 320 640 288
WIRE 1104 320 1104 288
WIRE 1184 320 1184 224
WIRE 1536 320 1536 192
WIRE 816 336 816 320
WIRE 304 352 304 320
WIRE 1392 480 1376 480
WIRE 1392 528 1392 480
WIRE 1216 608 1184 608
WIRE 1248 608 1216 608
WIRE 1392 624 1392 608
WIRE 1392 624 1312 624
WIRE 1248 640 1184 640
WIRE 1280 672 1280 656
WIRE 1040 720 1008 720
WIRE 1072 720 1040 720
WIRE 1184 720 1184 640
WIRE 1184 720 1152 720
WIRE 1216 720 1184 720
WIRE 1248 720 1216 720
WIRE 1376 720 1328 720
WIRE 1392 720 1392 624
WIRE 1392 720 1376 720
WIRE 944 752 816 752
WIRE 944 784 944 752
WIRE 816 800 816 752
WIRE 992 832 976 832
WIRE 816 896 816 880
WIRE 944 896 944 880
WIRE 512 1024 480 1024
WIRE 544 1024 512 1024
WIRE 624 1056 592 1056
WIRE 752 1056 704 1056
WIRE 784 1056 752 1056
WIRE 592 1104 592 1056
WIRE 592 1216 592 1184
FLAG 304 352 0
FLAG 368 -16 Vrec
FLAG 640 -160 Vrec
FLAG 640 320 0
FLAG 608 176 cp
FLAG 944 224 0
FLAG 816 336 0
FLAG 816 112 0
FLAG 1104 320 0
FLAG 1184 320 0
FLAG 1536 320 0
FLAG 1376 112 0
FLAG 896 192 in+
FLAG 896 160 in-
FLAG 992 176 opo
FLAG 992 128 0
FLAG 944 896 0
FLAG 992 832 Vx
FLAG 592 1216 0
FLAG 752 1056 Vp1ers
FLAG 512 1024 R7
FLAG 1280 672 0
FLAG 1040 720 Vx
FLAG 1376 720 oco
FLAG 1216 720 Vin+c
FLAG 1216 608 Vin-c
FLAG 816 896 0
DATAFLAG 880 -16 "round(1e3*$)/1e3"
DATAFLAG 864 272 "round(1e3*$)/1e3"
SYMBOL MDB_sym\\source-V 160 112 R0
WINDOW 0 8 21 Left 2
WINDOW 3 21 275 Left 2
WINDOW 123 0 0 Left 2
WINDOW 39 -3 95 Left 2
SYMATTR InstName V1
SYMATTR Value SINE(0 {12V*sqrt(2)} 50 0)
SYMATTR SpiceLine Rser=1
SYMBOL schottky 256 96 R180
WINDOW 0 24 64 Left 2
WINDOW 3 24 0 Left 2
SYMATTR InstName D1
SYMATTR Value B530C
SYMATTR Description Diode
SYMATTR Type diode
SYMBOL schottky 384 96 R180
WINDOW 0 24 64 Left 2
WINDOW 3 24 0 Left 2
SYMATTR InstName D3
SYMATTR Value B530C
SYMATTR Description Diode
SYMATTR Type diode
SYMBOL schottky 384 304 R180
WINDOW 0 24 64 Left 2
WINDOW 3 24 0 Left 2
SYMATTR InstName D4
SYMATTR Value B530C
SYMATTR Description Diode
SYMATTR Type diode
SYMBOL schottky 256 304 R180
WINDOW 0 24 64 Left 2
WINDOW 3 24 0 Left 2
SYMATTR InstName D2
SYMATTR Value B530C
SYMATTR Description Diode
SYMATTR Type diode
SYMBOL cap 624 224 R0
SYMATTR InstName C1
SYMATTR Value 1
SYMBOL EIT_Semiconductors\\npn 576 -64 R0
SYMATTR InstName Q1
SYMATTR Value NPNx
SYMBOL MDB_sym\\source-V 544 16 M0
WINDOW 3 -32 -79 Left 2
WINDOW 123 0 0 Left 2
WINDOW 39 0 0 Left 2
SYMATTR InstName V2
SYMATTR Value PULSE({Vref*3} {Vref} 0 3 1 100)
SYMBOL res 624 32 R0
WINDOW 3 22 122 Left 2
SYMATTR InstName R1
SYMATTR Value {(Vref-Vbe02)/Iset}
SYMBOL SBORKA\\COMPARATOR\\lm393 944 176 R0
SYMATTR InstName U1
SYMBOL EXTRA\\Misc\\pot 816 272 M0
SYMATTR InstName U2
SYMATTR Value R={Rp}
SYMATTR Value2 T={x}
SYMBOL EIT_Semiconductors\\npn 880 0 M0
SYMATTR InstName Q2
SYMATTR Value BC547B
SYMBOL res 800 -128 R0
SYMATTR InstName R2
SYMATTR Value 1k
SYMBOL EIT_Semiconductors\\npn 1120 128 R0
SYMATTR InstName Q3
SYMATTR Value BC547B
SYMBOL res 1088 192 R0
SYMATTR InstName R3
SYMATTR Value 10k
SYMBOL res 1088 48 R0
SYMATTR InstName R4
SYMATTR Value 470
SYMBOL res 1168 48 R270
WINDOW 0 25 56 VTop 2
WINDOW 3 7 56 VBottom 2
SYMATTR InstName R5
SYMATTR Value 500
SYMBOL ind 1168 -96 R0
SYMATTR InstName L1
SYMATTR Value 100µ
SYMBOL MDB_sym\\swMDBsingle 1520 -16 R0
WINDOW 3 23 34 Left 2
SYMATTR InstName U3
SYMATTR Value Vt=1  Vh=-.25
SYMBOL res 1552 96 M0
SYMATTR InstName RL
SYMATTR Value 1
SYMBOL crtl-I-V 1376 0 R0
SYMATTR InstName U4
SYMATTR Value H=100
SYMBOL res 928 -112 R0
SYMATTR InstName R6
SYMATTR Value 22
SYMBOL cap 976 48 R0
SYMATTR InstName C2
SYMATTR Value 10µ
SYMBOL EXTRA\\Misc\\pot 944 832 R180
SYMATTR InstName U5
SYMATTR Value R={Rp}
SYMATTR Value2 T={x}
SYMBOL bv 592 1088 R0
WINDOW 0 -41 1 Left 2
SYMATTR InstName B2
SYMATTR Value V={Vz*(1-x)}
SYMBOL res 608 1072 R270
WINDOW 0 25 56 VTop 2
WINDOW 3 -7 55 VBottom 2
SYMATTR InstName R7
SYMATTR Value {Rp*x*(1-x)}
SYMBOL MDB_sym\\source-Vmarker 480 1024 R0
SYMATTR Value V={Rp*x*(1-x)}
SYMATTR InstName U7
SYMBOL EIT_Semiconductors\\comp_oc 1280 624 R0
SYMATTR InstName U8
SYMBOL MDB_sym\\source-Vmarker 1184 608 R0
SYMATTR Value V={Vinm}
SYMATTR InstName U9
SYMBOL res 1344 704 R90
WINDOW 0 7 56 VBottom 2
WINDOW 3 25 56 VTop 2
SYMATTR InstName R8
SYMATTR Value {Rf}
SYMBOL res 1056 736 R270
WINDOW 0 25 56 VTop 2
WINDOW 3 7 56 VBottom 2
SYMATTR InstName R9
SYMATTR Value {Rx}
SYMBOL res 1376 512 R0
SYMATTR InstName R10
SYMATTR Value {Rpu}
SYMBOL MDB_sym\\source-Vmarker 1376 480 R0
SYMATTR Value V={Vpu}
SYMATTR InstName U10
SYMBOL MDB_sym\\source-V 816 784 M0
WINDOW 123 0 0 Left 2
WINDOW 39 0 0 Left 2
SYMATTR InstName V3
SYMATTR Value EXP(0 {Vz} 0 5)
TEXT 226 576 Left 2 !.tran {Tsim}startup
TEXT 904 360 Left 2 !.ic V(cp)=0
TEXT 528 368 Left 2 !.param Tsim = 25s\n+ Vref = 1.5V\n+ Vbe02 = .65V\n+ Iset = 3A\n+ Ic0 = {Iset}\n+ beta = 200\n+ Rp = 100k\n+ x = .05\n+ Vz = {16V * .5}\n+ Vinm = .75V\n+ Rx = {Rp*x*(1-x)}\n+ Vx = {Vz*(1-x)}\n+ Rpu = 10k\n+ Vpu = 10V\n+ Rf = 100meg
TEXT 712 -208 Left 2 !.model npnx npn ( Is={Ic0/exp(Vbe02/26m)}\n+ Bf = {beta})
TEXT 224 544 Left 2 ;.step param x .01 .99 .05
TEXT 232 608 Left 2 ;.ac oct 100 1 1meg
TEXT 272 648 Left 2 !.op
TEXT 132 1144 Left 2 ;.tf Vp1 I1
