Version 4
SHEET 1 880 680
WIRE 112 -80 112 -144
WIRE 112 32 112 0
WIRE 112 160 112 128
WIRE 112 272 112 240
FLAG 112 272 0
FLAG -32 80 0
SYMBOL SBORKA\\BJT\\bfr92 48 32 R0
WINDOW 38 51 34 Left 2
SYMATTR InstName U1
SYMBOL source-Vmarker 112 -144 M180
SYMATTR InstName U2
SYMATTR Value V=20V
SYMBOL source-I 48 80 R90
WINDOW 0 -27 40 VBottom 2
WINDOW 3 27 40 VTop 2
WINDOW 123 0 0 Left 2
WINDOW 39 0 0 Left 2
SYMATTR InstName Ib1
SYMATTR Value 0
SYMBOL res 96 144 R0
SYMATTR InstName R1
SYMATTR Value 1µ
SYMBOL res 96 -96 R0
SYMATTR InstName R2
SYMATTR Value 1µ
