Version 4
SHEET 1 896 692
WIRE 464 32 432 32
WIRE 624 32 576 32
WIRE 672 32 624 32
WIRE 784 32 768 32
WIRE 832 32 784 32
WIRE 864 32 832 32
WIRE 80 160 -64 160
WIRE 272 160 224 160
WIRE 304 160 272 160
WIRE 560 208 496 208
WIRE 592 208 560 208
WIRE 768 208 704 208
WIRE 800 208 768 208
WIRE 272 224 224 224
WIRE 304 224 272 224
WIRE 496 240 496 208
WIRE 704 240 704 208
WIRE -64 256 -64 160
WIRE 496 368 496 320
WIRE 704 368 704 320
WIRE -64 384 -64 336
WIRE 496 544 496 512
WIRE 656 544 656 512
WIRE 496 640 496 624
WIRE 656 640 656 624
FLAG 272 160 sin
FLAG 272 224 cos
FLAG -64 384 0
FLAG 496 368 0
FLAG 560 208 mulS
FLAG 496 640 0
FLAG 496 512 s1
FLAG 656 640 0
FLAG 656 512 c1
FLAG 704 368 0
FLAG 768 208 mulC
FLAG 624 32 sing
FLAG 832 32 doub
FLAG 464 32 mulS
SYMBOL SpecialFunctions\\modulate2 80 160 R0
WINDOW 3 8 126 Left 2
SYMATTR Value space={F0} mark={F1}
SYMATTR InstName A1
SYMBOL voltage -64 240 R0
WINDOW 123 0 0 Left 2
WINDOW 39 0 0 Left 2
SYMATTR InstName V1
SYMATTR Value PULSE(0 1 0 10m)
SYMBOL bv 496 224 R0
WINDOW 3 -77 177 Left 2
SYMATTR Value V=V(sin)*2.5+2.5
SYMATTR InstName B1
SYMBOL voltage 496 528 R0
WINDOW 3 -78 146 Left 2
WINDOW 123 0 0 Left 2
WINDOW 39 0 0 Left 2
SYMATTR Value SINE(0 1 200k)
SYMATTR InstName V2
SYMBOL voltage 656 528 R0
WINDOW 3 -78 146 Left 2
WINDOW 123 0 0 Left 2
WINDOW 39 0 0 Left 2
SYMATTR Value SINE(0 1 200k 0 0 90)
SYMATTR InstName V3
SYMBOL bv 704 224 R0
WINDOW 3 -77 177 Left 2
SYMATTR Value V=V(sin)*V(c1)
SYMATTR InstName B2
SYMBOL Dig_Add\\CD4xxx\\cd4049b 512 -32 R0
SYMATTR InstName U1
SYMATTR SpiceLine VDD=5  SPEED=0.10  TRIPDT=5e-12
SYMBOL Dig_Add\\CD4xxx\\cd4049b 720 -32 R0
SYMATTR InstName U2
TEXT -96 408 Left 2 !;tran 10
TEXT 80 -48 Left 2 !.param F0=1e6\n.param F1=100e6
TEXT -248 -48 Left 2 !.tran 0 10m\n.options plotwinsize=0
TEXT -224 96 Left 2 !;tran 50m
