Version 4
SHEET 1 1836 680
WIRE 320 -80 16 -80
WIRE 512 -80 320 -80
WIRE 320 -48 320 -80
WIRE -1088 0 -1152 0
WIRE -1040 0 -1088 0
WIRE -992 0 -992 -16
WIRE -992 0 -1040 0
WIRE -896 0 -992 0
WIRE -896 16 -896 0
WIRE 512 32 512 -80
WIRE 16 48 16 -80
WIRE 208 80 192 80
WIRE 320 80 320 32
WIRE 320 80 272 80
WIRE 448 80 320 80
WIRE -592 96 -592 64
WIRE -512 96 -592 96
WIRE -896 112 -896 80
WIRE -800 112 -896 112
WIRE -752 112 -800 112
WIRE -752 128 -752 112
WIRE -592 128 -592 96
WIRE -512 128 -512 96
WIRE 320 128 320 80
WIRE -992 144 -992 0
WIRE 512 160 512 128
WIRE 544 160 512 160
WIRE 576 160 544 160
WIRE 672 160 640 160
WIRE 720 160 672 160
WIRE -1152 176 -1152 0
WIRE -896 176 -896 112
WIRE 16 176 16 128
WIRE 512 192 512 160
WIRE -752 240 -752 208
WIRE -672 240 -752 240
WIRE -592 240 -592 208
WIRE -592 240 -672 240
WIRE -512 240 -512 208
WIRE -512 240 -592 240
WIRE 192 240 192 80
WIRE 192 240 144 240
WIRE 256 240 192 240
WIRE -992 256 -992 208
WIRE -672 272 -672 240
WIRE 320 272 320 208
WIRE 720 272 720 160
WIRE -672 288 -672 272
WIRE -528 288 -672 288
WIRE -432 288 -464 288
WIRE -416 288 -432 288
WIRE 144 288 144 240
WIRE -1152 304 -1152 256
WIRE -896 304 -896 256
WIRE -672 336 -672 288
WIRE 256 336 256 304
WIRE 512 336 512 272
WIRE 512 336 256 336
WIRE 256 368 256 336
WIRE 512 368 512 336
WIRE -416 384 -416 288
WIRE 256 384 256 368
WIRE 144 432 144 368
WIRE 176 432 144 432
WIRE 256 432 176 432
WIRE -1040 448 -1040 0
WIRE -928 448 -1040 448
WIRE -784 448 -864 448
WIRE -672 448 -672 416
WIRE -672 448 -784 448
WIRE -784 480 -784 448
WIRE -672 480 -672 448
WIRE 176 480 176 432
WIRE 512 480 512 448
WIRE 720 480 720 352
WIRE -416 512 -416 464
WIRE -784 576 -784 544
WIRE -672 592 -672 560
FLAG 176 480 0
FLAG 512 480 0
FLAG 320 272 0
FLAG 720 480 0
FLAG 16 176 0
FLAG 672 160 out
FLAG 544 160 e
FLAG -1152 304 0
FLAG -896 304 0
FLAG -672 592 0
FLAG -592 64 0
FLAG -416 512 0
FLAG -800 112 b1
FLAG -672 272 e1
FLAG -432 288 out1
FLAG -1088 0 vb1
FLAG -784 576 0
FLAG -992 256 0
SYMBOL EIT_Semiconductors\\npn 448 32 R0
SYMATTR InstName Q2
SYMATTR Value NPNx
SYMBOL res 304 -64 R0
SYMATTR InstName R4
SYMATTR Value 47k
SYMBOL res 304 112 R0
SYMATTR InstName R5
SYMATTR Value 100k
SYMBOL res 496 176 R0
SYMATTR InstName R6
SYMATTR Value 750
SYMBOL res 496 352 R0
SYMATTR InstName R7
SYMATTR Value 1k
SYMBOL cap 640 144 R90
WINDOW 0 0 32 VBottom 2
WINDOW 3 32 32 VTop 2
SYMATTR InstName C5
SYMATTR Value 100µ
SYMBOL cap 272 64 R90
WINDOW 0 0 32 VBottom 2
WINDOW 3 32 32 VTop 2
SYMATTR InstName C6
SYMATTR Value 100µ
SYMBOL cap 272 304 R180
WINDOW 0 24 64 Left 2
WINDOW 3 24 8 Left 2
SYMATTR InstName C7
SYMATTR Value 500p
SYMBOL cap 272 432 R180
WINDOW 0 24 64 Left 2
WINDOW 3 24 8 Left 2
SYMATTR InstName C8
SYMATTR Value 500p
SYMBOL ind 128 272 R0
SYMATTR InstName L3
SYMATTR Value 100µ
SYMBOL res 704 256 R0
SYMATTR InstName R8
SYMATTR Value 100k
SYMBOL source-V 16 32 R0
WINDOW 123 0 0 Left 2
WINDOW 39 0 0 Left 2
SYMATTR InstName V1
SYMATTR Value 10
SYMBOL ind -1168 160 R0
SYMATTR InstName L1
SYMATTR Value 100µ
SYMBOL cap -912 16 R0
SYMATTR InstName C6_a
SYMATTR Value 100µ
SYMBOL res -912 160 R0
SYMATTR InstName Rers
SYMATTR Value 32k
SYMBOL res -768 112 R0
SYMATTR InstName rpi
SYMATTR Value 1.63k
SYMBOL Function-I -592 208 R180
WINDOW 0 30 61 Left 2
WINDOW 3 -64 179 Left 2
SYMATTR InstName B1
SYMATTR Value I={gm*(V(b1)-V(e1))}
SYMBOL res -528 112 R0
SYMATTR InstName r0
SYMATTR Value 652
SYMBOL res -688 320 R0
SYMATTR InstName R6_a
SYMATTR Value 750
SYMBOL res -688 464 R0
SYMATTR InstName R7_a
SYMATTR Value 1k
SYMBOL res -432 368 R0
SYMATTR InstName R8_a
SYMATTR Value 100k
SYMBOL cap -464 272 R90
WINDOW 0 0 32 VBottom 2
WINDOW 3 32 32 VTop 2
SYMATTR InstName C5_a
SYMATTR Value 100µ
SYMBOL cap -800 480 R0
SYMATTR InstName C8_a
SYMATTR Value 500p
SYMBOL cap -864 432 R90
WINDOW 0 0 32 VBottom 2
WINDOW 3 32 32 VTop 2
SYMATTR InstName C7_A
SYMATTR Value 500p
SYMBOL cap -1008 144 R0
SYMATTR InstName C1
SYMATTR Value 200p
TEXT -40 256 Left 2 !.tran 3m
TEXT 600 -56 Left 2 !.model NPNx NPN(BF=200 IS=1.e-14 VA=80)
TEXT -416 152 Left 2 !.param gm=122.6m
TEXT -1048 -88 Left 2 !.ic V(b1)=10m
