Version 4
SHEET 1 1928 896
WIRE -80 -160 -80 -208
WIRE -80 -48 -80 -80
WIRE -80 -16 -80 -48
WIRE 496 0 496 -64
WIRE 1184 32 1104 32
WIRE 1232 32 1184 32
WIRE -80 80 -80 48
WIRE 1104 80 1104 32
WIRE 496 144 496 80
WIRE 1232 144 1232 32
WIRE 1808 144 1728 144
WIRE 1856 144 1808 144
WIRE 1104 192 1104 144
WIRE 784 208 784 160
WIRE 880 208 880 160
WIRE 1856 256 1856 144
WIRE -96 288 -96 208
WIRE 1232 288 1232 224
WIRE 1728 304 1728 144
WIRE 304 320 304 256
WIRE 784 336 784 288
WIRE 880 336 880 288
WIRE 880 336 784 336
WIRE 1104 336 1104 256
WIRE 1168 336 1104 336
WIRE 1856 336 1760 336
WIRE 0 368 -32 368
WIRE 64 368 0 368
WIRE 880 368 880 336
WIRE 0 400 0 368
WIRE 1856 400 1856 336
WIRE 416 416 416 336
WIRE 1104 416 1104 336
WIRE 1728 448 1728 368
WIRE 1792 448 1728 448
WIRE 304 464 304 400
WIRE 352 464 304 464
WIRE 64 480 64 368
WIRE 1232 480 1232 384
WIRE -96 496 -96 448
WIRE 0 496 0 480
WIRE 0 496 -96 496
WIRE -96 512 -96 496
WIRE 304 512 304 464
WIRE 1728 528 1728 448
WIRE 416 544 416 512
WIRE 416 544 336 544
WIRE 416 576 416 544
WIRE 1856 592 1856 496
WIRE -96 608 -96 576
WIRE 64 608 64 560
WIRE 64 608 -96 608
WIRE 1104 640 1104 496
WIRE 1232 640 1232 560
WIRE -96 688 -96 608
WIRE 304 704 304 576
WIRE 368 704 304 704
WIRE 416 704 416 656
WIRE 416 704 368 704
WIRE 1728 752 1728 608
WIRE 1856 752 1856 672
FLAG 304 256 Vplus
FLAG 416 336 Isink1
FLAG 368 704 Vmin
FLAG -96 208 Vplus
FLAG -96 688 LM334
FLAG 880 368 0
FLAG 880 160 Vmin
FLAG 784 160 Vplus
FLAG 496 -64 Vplus
FLAG 496 144 Isink1
FLAG 656 16 LM334
FLAG 656 96 Vmin
FLAG 1232 640 0
FLAG 1088 640 0
FLAG 1104 640 0
FLAG 1184 32 Vplus
FLAG 1856 752 0
FLAG 1712 752 0
FLAG 1728 752 0
FLAG 1808 144 Vplus
FLAG -80 80 0
FLAG -80 -208 0
FLAG -80 -48 vd
SYMBOL TL431 304 560 R180
SYMATTR InstName U1
SYMBOL res 288 304 R0
SYMATTR InstName R1
SYMATTR Value 4.7k
SYMBOL EIT_Semiconductors\\npn 352 416 R0
SYMATTR InstName Q1
SYMATTR Value BC550BP
SYMBOL res 400 560 R0
SYMATTR InstName R2
SYMATTR Value 613
SYMBOL LM334 -96 368 R0
SYMATTR InstName U2
SYMBOL res -16 384 R0
SYMATTR InstName R3
SYMATTR Value 45.3
SYMBOL diode -112 512 R0
SYMATTR InstName D1
SYMATTR Value 1N914
SYMBOL res 48 464 R0
SYMATTR InstName R4
SYMATTR Value 284
SYMBOL source-V 784 192 R0
WINDOW 123 0 0 Left 2
WINDOW 39 0 0 Left 2
WINDOW 3 -87 92 Left 2
SYMATTR Value 30
SYMATTR InstName V1
SYMBOL source-V 880 192 R0
WINDOW 123 0 0 Left 2
WINDOW 39 0 0 Left 2
WINDOW 3 -72 98 Left 2
SYMATTR Value -30
SYMATTR InstName V2
SYMBOL res 480 -16 R0
SYMATTR InstName R5
SYMATTR Value 10
SYMBOL res 640 0 R0
SYMATTR InstName R6
SYMATTR Value 10
SYMBOL EIT_Semiconductors\\pnp 1168 384 M180
SYMATTR InstName Q2
SYMBOL res 1216 128 R0
SYMATTR InstName R7
SYMATTR Value 613
SYMBOL diode 1088 192 R0
SYMATTR InstName D2
SYMBOL res 1088 400 R0
SYMATTR InstName R8
SYMATTR Value 4.7k
SYMBOL res 1216 464 R0
SYMATTR InstName R9
SYMATTR Value 10
SYMBOL diode 1088 80 R0
SYMATTR InstName D3
SYMBOL EIT_Semiconductors\\pnp 1792 496 M180
SYMATTR InstName Q3
SYMBOL res 1840 240 R0
SYMATTR InstName R10
SYMATTR Value 613
SYMBOL res 1712 512 R0
SYMATTR InstName R11
SYMATTR Value 4.7k
SYMBOL res 1840 576 R0
SYMATTR InstName R12
SYMATTR Value 10
SYMBOL TL431 1728 352 R180
SYMATTR InstName U3
SYMBOL diode -96 -16 R0
SYMATTR InstName D4
SYMATTR Value 1N914
SYMBOL source-I -80 -80 R180
WINDOW 0 29 73 Left 2
WINDOW 3 29 17 Left 2
WINDOW 123 0 0 Left 2
WINDOW 39 0 0 Left 2
SYMATTR InstName I1
SYMATTR Value 1m
TEXT -16 88 Left 2 ;tempco of 1N914 measured:\n-1.66702mV/K ????\n-2.03mV/K
TEXT 672 408 Left 2 !;ac oct 500 1 1000meg
TEXT 72 272 Left 2 !.op
TEXT 184 24 Left 2 !.step TEMP 0 100 1
