Version 4
SHEET 1 1424 884
WIRE 128 -464 48 -464
WIRE 240 -464 128 -464
WIRE 48 -448 48 -464
WIRE 128 -448 128 -464
WIRE -32 -432 -48 -432
WIRE 240 -432 240 -464
WIRE -32 -384 -48 -384
WIRE 48 -352 48 -368
WIRE 128 -352 128 -368
WIRE 240 -352 240 -368
WIRE 128 -256 48 -256
WIRE 240 -256 128 -256
WIRE 48 -240 48 -256
WIRE 128 -240 128 -256
WIRE -32 -224 -48 -224
WIRE 240 -224 240 -256
WIRE -32 -176 -48 -176
WIRE 48 -144 48 -160
WIRE 128 -144 128 -160
WIRE 240 -144 240 -160
WIRE 112 16 112 0
WIRE 32 32 16 32
WIRE 32 80 16 80
WIRE 112 112 112 96
WIRE -96 736 -112 736
WIRE -80 736 -96 736
WIRE 32 752 16 752
WIRE 64 752 32 752
WIRE -96 768 -112 768
WIRE -80 768 -96 768
WIRE 64 768 64 752
WIRE -64 800 -64 784
WIRE 64 864 64 848
FLAG 112 112 N002
FLAG 112 0 0
FLAG 16 32 N002
FLAG 16 80 5
FLAG 128 -352 0
FLAG 48 -464 N004
FLAG -48 -432 N002
FLAG -48 -384 0
FLAG 48 -352 0
FLAG 128 -144 0
FLAG 48 -256 N003
FLAG -48 -224 N002
FLAG -48 -176 0
FLAG 48 -144 0
FLAG 240 -144 0
FLAG 240 -352 0
FLAG -64 800 0
FLAG -96 736 2
FLAG -96 768 1
FLAG 32 752 N002
FLAG 64 864 0
SYMBOL crtl-V-I 112 0 R0
WINDOW 3 54 61 Left 2
SYMATTR InstName G1
SYMATTR Value table (-500m {-2.e+6*sr*Cout} -100m 0 100m 0 500m {2.e+6*sr*Cout})
SYMBOL crtl-V-I 48 -464 R0
WINDOW 3 16 144 Left 2
SYMATTR InstName Gp1
SYMATTR Value {1/Rout}
SYMBOL res 112 -464 R0
WINDOW 123 36 100 Left 2
SYMATTR InstName Rp1
SYMATTR Value {Rout}
SYMATTR Value2 noiseless
SYMBOL crtl-V-I 48 -256 R0
WINDOW 3 16 144 Left 2
SYMATTR InstName Gp2
SYMATTR Value {1/Rout}
SYMBOL res 112 -256 R0
WINDOW 123 36 100 Left 2
SYMATTR InstName Rp2
SYMATTR Value {Rout}
SYMATTR Value2 noiseless
SYMBOL cap 224 -224 R0
SYMATTR InstName Cp1
SYMATTR Value {cout*tan(pi*(0.25-phir/360))/A0}
SYMBOL cap 224 -432 R0
SYMATTR InstName Cp2
SYMATTR Value {cout*tan(pi*(0.25-phir/360))/A0}
SYMBOL MDB_sym\\otaMDB -48 752 R0
WINDOW 3 426 -101 Center 2
SYMATTR InstName A1
SYMATTR Value G={A0/Rout} ref={Vos} Iout={1.e+6*sr*Cout} Cout={Cout} en={en} enk={enk} in={in} ink={ink} incm={incm} incmk={incmk} Vhigh=1e308 Vlow=-1e308
SYMATTR Value2 ""
SYMBOL res 48 752 R0
WINDOW 123 36 100 Left 2
SYMATTR InstName R1
SYMATTR Value {Rout}
SYMATTR Value2 noiseless
