Version 4
SHEET 1 880 680
WIRE 336 -64 336 -112
WIRE 336 -64 208 -64
WIRE 208 -32 208 -64
WIRE 336 32 336 -64
WIRE 208 80 208 48
WIRE 272 80 208 80
WIRE 208 128 208 80
WIRE 336 160 336 128
WIRE 208 272 208 208
WIRE 336 288 336 240
FLAG 336 288 0
FLAG 208 272 0
DATAFLAG 384 144 "round(1e5*Ic(Q5))*1e-5"
SYMBOL BOR_sym\\EIT_Semiconductors\\pnp 272 128 M180
SYMATTR InstName Q1
SYMATTR Value BC327-40
SYMBOL BOR_sym\\source-V 336 144 R0
WINDOW 123 0 0 Left 2
WINDOW 39 0 0 Left 2
SYMATTR InstName V1
SYMATTR Value 2.5V
SYMBOL BOR_sym\\source-Vmarker 336 -112 R0
SYMATTR Value V=3.3V
SYMATTR InstName U1
SYMBOL res 192 -48 R0
WINDOW 3 -84 70 Left 2
SYMATTR InstName R1
SYMATTR Value {Rpot*p+1u}
SYMBOL res 192 112 R0
WINDOW 3 -93 202 Left 2
SYMATTR InstName R2
SYMATTR Value {Rpot*(1-p)+1u}
TEXT 24 160 Left 2 !.param Rpot = 50k\n+ p = 0.5
TEXT -112 248 Left 2 !.step param p 0 .25 1e-3
TEXT -56 56 Left 2 !.op
