Version 4
SHEET 1 880 680
WIRE -688 -624 -896 -624
WIRE -656 -624 -688 -624
WIRE -528 -624 -576 -624
WIRE -480 -624 -480 -656
WIRE -480 -624 -528 -624
WIRE -528 -576 -528 -624
WIRE -896 -528 -896 -624
WIRE -528 -480 -528 -496
WIRE -528 -480 -656 -480
WIRE -688 -448 -688 -624
WIRE -656 -448 -656 -480
WIRE -896 -432 -896 -448
WIRE -528 -368 -528 -480
WIRE -672 -352 -672 -384
WIRE -624 -352 -672 -352
WIRE -576 -352 -624 -352
WIRE -624 -272 -624 -352
WIRE -528 -192 -528 -272
WIRE -624 -144 -624 -192
FLAG -896 -432 0
FLAG -528 -112 0
FLAG -624 -144 0
SYMBOL EIT_Semiconductors\\op_3 -672 -416 R90
WINDOW 123 -314 -10 VRight 2
WINDOW 3 -335 -51 VRight 2
SYMATTR InstName U1
SYMATTR Value Vp=5 Vm=-5 Ilim=20m
SYMBOL EIT_Semiconductors\\pmos -576 -272 M180
SYMATTR InstName M1
SYMATTR Value BSS84
SYMBOL res -544 -592 R0
SYMATTR InstName R1
SYMATTR Value 100
SYMBOL res -560 -640 R90
WINDOW 0 0 56 VBottom 2
WINDOW 3 32 56 VTop 2
SYMATTR InstName R2
SYMATTR Value 1
SYMBOL source-Vmarker -480 -656 R90
SYMATTR Value V=3
SYMATTR InstName U2
SYMBOL source-I -896 -448 R180
WINDOW 0 29 73 Left 2
WINDOW 3 29 17 Left 2
WINDOW 123 0 0 Left 2
WINDOW 39 0 0 Left 2
SYMATTR InstName I1
SYMATTR Value SINE(1 .9 1k)
SYMBOL res -544 -208 R0
SYMATTR InstName R3
SYMATTR Value 1k
SYMBOL res -640 -288 R0
SYMATTR InstName R4
SYMATTR Value 10mrg
TEXT -1090 -88 Left 2 !.tran 10m
