Version 4
SHEET 1 1424 800
WIRE 32 -272 -112 -272
WIRE 144 -272 32 -272
WIRE 560 -272 144 -272
WIRE 672 -272 560 -272
WIRE -112 -208 -112 -272
WIRE 32 -160 32 -272
WIRE 672 -160 672 -272
WIRE -112 -96 -112 -128
WIRE 144 -64 144 -272
WIRE 560 -64 560 -272
WIRE 32 -48 32 -80
WIRE 32 -48 16 -48
WIRE 96 -48 32 -48
WIRE 672 -48 672 -80
WIRE 672 -48 608 -48
WIRE 688 -48 672 -48
WIRE 144 64 144 32
WIRE 256 64 144 64
WIRE 368 64 336 64
WIRE 560 64 560 32
WIRE 560 64 448 64
WIRE 144 80 144 64
WIRE 560 80 560 64
WIRE 32 160 32 -48
WIRE 96 160 32 160
WIRE 672 160 672 -48
WIRE 672 160 608 160
WIRE 32 224 32 160
WIRE 672 224 672 160
WIRE 32 352 32 304
WIRE 672 352 672 304
WIRE -240 400 -320 400
WIRE -208 400 -240 400
WIRE -80 400 -128 400
WIRE -32 400 -80 400
WIRE 784 400 736 400
WIRE 832 400 784 400
WIRE 1024 400 912 400
WIRE -80 448 -80 400
WIRE 784 448 784 400
WIRE -320 464 -320 400
WIRE 1024 496 1024 400
WIRE -80 544 -80 528
WIRE 32 544 32 448
WIRE 144 544 144 176
WIRE 560 544 560 176
WIRE 672 544 672 448
WIRE 784 544 784 528
WIRE -320 560 -320 544
WIRE 32 560 32 544
WIRE 672 560 672 544
WIRE -240 624 -240 400
WIRE 944 624 -240 624
WIRE 1024 640 1024 576
WIRE 944 656 944 624
WIRE 944 736 944 704
WIRE 1024 736 1024 720
FLAG -80 544 0
FLAG 32 544 0
FLAG 144 544 0
FLAG -320 560 0
FLAG -112 -96 0
FLAG 144 64 out
FLAG 784 544 0
FLAG 672 544 0
FLAG 560 544 0
FLAG 1024 736 0
FLAG 560 64 out
FLAG 944 736 0
SYMBOL EIT_Semiconductors\\nmos 96 80 R0
SYMATTR InstName M1
SYMBOL EIT_Semiconductors\\pmos 96 32 M180
SYMATTR InstName M2
SYMBOL res 16 -176 R0
SYMATTR InstName R1
SYMATTR Value 6.8kR
SYMBOL res 16 208 R0
SYMATTR InstName R2
SYMATTR Value 100
SYMBOL EIT_Semiconductors\\npn -32 352 R0
SYMATTR InstName Q1
SYMBOL res -112 384 R90
WINDOW 0 7 56 VBottom 0
WINDOW 3 25 56 VTop 0
SYMATTR InstName R3
SYMATTR Value 4.7k
SYMBOL res -64 544 R180
WINDOW 0 36 76 Left 0
WINDOW 3 36 40 Left 0
SYMATTR InstName R4
SYMATTR Value 68k
SYMBOL source-V -112 -224 R0
WINDOW 123 0 0 Left 0
WINDOW 39 0 0 Left 0
SYMATTR InstName V1
SYMATTR Value 14
SYMBOL source-V -320 448 R0
WINDOW 123 0 0 Left 0
WINDOW 39 0 0 Left 0
SYMATTR InstName V2
SYMATTR Value 1
SYMBOL res 352 48 R90
WINDOW 0 7 56 VBottom 0
WINDOW 3 25 56 VTop 0
SYMATTR InstName R5
SYMATTR Value 25
SYMBOL ind 464 48 R90
WINDOW 0 6 56 VBottom 0
WINDOW 3 30 56 VTop 0
SYMATTR InstName L1
SYMATTR Value 10m
SYMBOL EIT_Semiconductors\\nmos 608 80 M0
SYMATTR InstName M3
SYMBOL EIT_Semiconductors\\pmos 608 32 R180
SYMATTR InstName M4
SYMBOL res 688 -176 M0
SYMATTR InstName R6
SYMATTR Value 6.8kR
SYMBOL res 688 208 M0
SYMATTR InstName R7
SYMATTR Value 100
SYMBOL EIT_Semiconductors\\npn 736 352 M0
SYMATTR InstName Q2
SYMBOL res 816 384 M90
WINDOW 0 7 56 VBottom 0
WINDOW 3 25 56 VTop 0
SYMATTR InstName R8
SYMATTR Value 4.7k
SYMBOL res 768 544 M180
WINDOW 0 36 76 Left 0
WINDOW 3 36 40 Left 0
SYMATTR InstName R9
SYMATTR Value 68k
SYMBOL crtl-V-V 1024 624 R0
SYMATTR InstName E1
SYMATTR Value -1
SYMBOL source-V 1024 480 R0
WINDOW 123 0 0 Left 0
WINDOW 39 0 0 Left 0
SYMATTR InstName V3
SYMATTR Value 5
TEXT -348 584 Left 0 !.dc V2 0 5 0.01
