Version 4
SHEET 1 880 680
WIRE -1504 -1552 -1552 -1552
WIRE -1504 -1520 -1552 -1520
WIRE -656 -1440 -800 -1440
WIRE -560 -1440 -656 -1440
WIRE -1408 -1424 -1552 -1424
WIRE -1312 -1424 -1408 -1424
WIRE -560 -1408 -560 -1440
WIRE -1312 -1392 -1312 -1424
WIRE -608 -1296 -640 -1296
WIRE -576 -1296 -608 -1296
WIRE -1360 -1280 -1392 -1280
WIRE -1328 -1280 -1360 -1280
WIRE -560 -1280 -560 -1328
WIRE -560 -1280 -800 -1280
WIRE -496 -1280 -560 -1280
WIRE -1312 -1264 -1312 -1312
WIRE -1312 -1264 -1552 -1264
WIRE -1248 -1264 -1312 -1264
WIRE -864 -1232 -912 -1232
WIRE -416 -1232 -432 -1232
WIRE -1872 -1216 -1888 -1216
WIRE -1824 -1216 -1840 -1216
WIRE -1616 -1216 -1664 -1216
WIRE -1168 -1216 -1184 -1216
WIRE -800 -1168 -800 -1184
WIRE -496 -1168 -496 -1184
WIRE -1552 -1152 -1552 -1168
WIRE -1248 -1152 -1248 -1168
WIRE -416 -1120 -416 -1232
WIRE -416 -1120 -912 -1120
WIRE -1888 -1104 -1904 -1104
WIRE -1824 -1104 -1856 -1104
WIRE -1168 -1104 -1168 -1216
WIRE -1168 -1104 -1664 -1104
WIRE -1552 -1056 -1552 -1152
WIRE -1248 -1056 -1248 -1152
WIRE -1312 -1008 -1488 -1008
WIRE -1152 -1008 -1312 -1008
WIRE -2128 -992 -2160 -992
WIRE -2064 -992 -2128 -992
WIRE -1920 -992 -2064 -992
WIRE -1808 -992 -1856 -992
WIRE -800 -960 -800 -1168
WIRE -656 -960 -656 -1440
WIRE -496 -960 -496 -1168
WIRE -1552 -944 -1552 -960
WIRE -1408 -944 -1408 -1424
WIRE -1248 -944 -1248 -960
WIRE -496 -944 -496 -960
WIRE -1920 -928 -1984 -928
WIRE -1808 -928 -1856 -928
WIRE -400 -928 -496 -928
WIRE -1152 -912 -1248 -912
WIRE -1104 -912 -1152 -912
WIRE -864 -912 -896 -912
WIRE -832 -912 -864 -912
WIRE -720 -912 -752 -912
WIRE -688 -912 -720 -912
WIRE -656 -912 -656 -928
WIRE -560 -912 -592 -912
WIRE -528 -912 -560 -912
WIRE -2160 -896 -2160 -992
WIRE -1984 -896 -1984 -928
WIRE -1616 -896 -1648 -896
WIRE -1584 -896 -1616 -896
WIRE -1472 -896 -1504 -896
WIRE -1440 -896 -1472 -896
WIRE -1408 -896 -1408 -912
WIRE -1312 -896 -1344 -896
WIRE -1280 -896 -1312 -896
WIRE -2064 -880 -2064 -992
WIRE -400 -880 -400 -928
WIRE -1104 -864 -1104 -912
WIRE -800 -864 -800 -928
WIRE -720 -864 -800 -864
WIRE -1552 -848 -1552 -912
WIRE -1472 -848 -1552 -848
WIRE -2160 -800 -2160 -816
WIRE -2064 -800 -2064 -832
WIRE -1984 -800 -1984 -816
WIRE -800 -800 -800 -864
WIRE -496 -800 -496 -928
WIRE -1552 -784 -1552 -848
WIRE -1248 -784 -1248 -912
WIRE -400 -784 -400 -800
WIRE -1104 -768 -1104 -784
WIRE -656 -752 -656 -816
WIRE -656 -752 -736 -752
WIRE -560 -752 -656 -752
WIRE -1408 -736 -1408 -800
WIRE -1408 -736 -1488 -736
WIRE -1312 -736 -1408 -736
WIRE -656 -736 -656 -752
WIRE -1408 -720 -1408 -736
WIRE -800 -624 -800 -704
WIRE -800 -624 -816 -624
WIRE -656 -624 -656 -656
WIRE -656 -624 -800 -624
WIRE -496 -624 -496 -704
WIRE -496 -624 -656 -624
WIRE -1552 -608 -1552 -688
WIRE -1552 -608 -1568 -608
WIRE -1408 -608 -1408 -640
WIRE -1408 -608 -1552 -608
WIRE -1248 -608 -1248 -688
WIRE -1248 -608 -1408 -608
FLAG -1152 -912 Idv
FLAG -1504 -1552 V+
IOPIN -1504 -1552 Out
FLAG -1504 -1520 V-
IOPIN -1504 -1520 Out
FLAG -1552 -1424 V+
IOPIN -1552 -1424 BiDir
FLAG -1568 -608 V-
IOPIN -1568 -608 BiDir
FLAG -1664 -1216 in+
FLAG -1664 -1104 in-
FLAG -1552 -1152 e1
FLAG -1248 -1152 e2
FLAG -400 -928 Idvb
FLAG -800 -1440 V+
IOPIN -800 -1440 BiDir
FLAG -816 -624 V-
IOPIN -816 -624 BiDir
FLAG -800 -1168 e1b
FLAG -496 -1168 e2b
FLAG -1888 -1216 0
FLAG -1904 -1104 0
FLAG -1808 -992 in+
FLAG -1808 -928 in-
FLAG -944 -1584 0
FLAG -944 -1536 0
FLAG -912 -1584 in+b
FLAG -912 -1536 in-b
FLAG -2160 -800 0
FLAG -2128 -992 sweep
FLAG -1984 -800 0
FLAG -2064 -800 0
FLAG -912 -1232 in+
FLAG -912 -1120 in-
FLAG -1072 -1008 0
FLAG -1104 -768 0
FLAG -400 -784 0
DATAFLAG -1360 -1280 "abs(round(1meg*Ic(Q8))*1u)"
DATAFLAG -1616 -896 "abs(round(100meg*Ix(IC3:in))*1u/100)"
DATAFLAG -1312 -896 "abs(round(100meg*Ix(IC4:in))*1u/100)"
DATAFLAG -1472 -896 "abs(round(100meg*Ix(IC5:in))*1u/100)"
DATAFLAG -608 -1296 "abs(round(1meg*Ic(Q8))*1u)"
DATAFLAG -864 -912 "abs(round(100meg*Ix(IC3:in))*1u/100)"
DATAFLAG -560 -912 "abs(round(100meg*Ix(IC4:in))*1u/100)"
DATAFLAG -720 -912 "abs(round(100meg*Ix(IC5:in))*1u/100)"
SYMBOL EIT_Semiconductors\\npn -1616 -1264 R0
SYMATTR InstName Q1
SYMATTR Value NPN1
SYMBOL EIT_Semiconductors\\npn -1184 -1264 M0
SYMATTR InstName Q2
SYMATTR Value NPN1
SYMBOL EIT_Semiconductors\\pnp -1312 -960 M180
WINDOW 0 -18 84 Left 2
WINDOW 3 -16 112 Left 2
SYMATTR InstName Q3
SYMATTR Value PNP1
SYMBOL EIT_Semiconductors\\pnp -1488 -960 R180
WINDOW 0 56 32 Left 2
WINDOW 3 56 68 Left 2
SYMATTR InstName Q4
SYMATTR Value PNP1
SYMBOL EIT_Semiconductors\\npn -1472 -896 R0
SYMATTR InstName Q5
SYMATTR Value NPN1
SYMBOL EIT_Semiconductors\\npn -1488 -784 M0
SYMATTR InstName Q6
SYMATTR Value NPN1
SYMBOL EIT_Semiconductors\\npn -1312 -784 R0
SYMATTR InstName Q7
SYMATTR Value NPN1
SYMBOL res -1424 -736 R0
SYMATTR InstName R1
SYMATTR Value 50k
SYMBOL source-Vmarker -1552 -1552 R0
SYMATTR Value V={Vplus}
SYMATTR InstName U1
SYMBOL source-Vmarker -1552 -1520 R0
SYMATTR Value V={-Vplus}
SYMATTR InstName U2
SYMBOL MDB_sym\\arrow_curr -1552 -928 M0
WINDOW 0 -41 -18 Left 2
SYMATTR InstName IC1
SYMBOL MDB_sym\\arrow_curr -1248 -928 M0
WINDOW 0 -42 -18 Left 2
SYMATTR InstName IC2
SYMBOL MDB_sym\\arrow_curr -1408 -928 M0
WINDOW 0 -43 -17 Left 2
SYMATTR InstName IC3
SYMBOL source-I -1312 -1312 R180
WINDOW 123 0 0 Left 2
WINDOW 39 29 -9 Left 2
SYMATTR SpiceLine load
SYMATTR InstName I1
SYMATTR Value 15u
SYMBOL EIT_Semiconductors\\npn -864 -1280 R0
SYMATTR InstName Q8
SYMATTR Value NPN1
SYMBOL EIT_Semiconductors\\npn -432 -1280 M0
SYMATTR InstName Q9
SYMATTR Value NPN1
SYMBOL EIT_Semiconductors\\npn -720 -912 R0
SYMATTR InstName Q10
SYMATTR Value NPN1
SYMBOL EIT_Semiconductors\\npn -736 -800 M0
SYMATTR InstName Q11
SYMATTR Value NPN1
SYMBOL EIT_Semiconductors\\npn -560 -800 R0
SYMATTR InstName Q12
SYMATTR Value NPN1
SYMBOL res -672 -752 R0
SYMATTR InstName R2
SYMATTR Value 50k
SYMBOL MDB_sym\\arrow_curr -800 -944 M0
WINDOW 0 -41 -18 Left 2
SYMATTR InstName IC4
SYMBOL MDB_sym\\arrow_curr -496 -944 M0
WINDOW 0 -42 -18 Left 2
SYMATTR InstName IC5
SYMBOL MDB_sym\\arrow_curr -656 -944 M0
WINDOW 0 -43 -17 Left 2
SYMATTR InstName IC6
SYMBOL source-I -560 -1328 R180
WINDOW 123 0 0 Left 2
WINDOW 39 29 -9 Left 2
SYMATTR SpiceLine load
SYMATTR InstName I2
SYMATTR Value 15u
SYMBOL MDB_sym\\isoR -1856 -1216 R90
WINDOW 0 -4 0 VBottom 2
SYMATTR InstName R3
SYMBOL MDB_sym\\isoR -1872 -1104 R90
WINDOW 0 -4 0 VBottom 2
SYMATTR InstName R4
SYMBOL MDB_sym\\isoR -928 -1584 R90
WINDOW 0 -4 0 VBottom 2
SYMATTR InstName R5
SYMBOL MDB_sym\\isoR -928 -1536 R90
WINDOW 0 -4 0 VBottom 2
SYMATTR InstName R6
SYMBOL source-V -2160 -912 R0
WINDOW 123 28 109 Left 2
WINDOW 39 0 0 Left 2
SYMATTR Value2 AC 1
SYMATTR InstName V1
SYMATTR Value SINE(0 10m 1k)
SYMBOL crtl-V-V -1984 -912 R0
SYMATTR InstName E1
SYMATTR Value -1
SYMBOL Misc\\jumper -1888 -1056 R0
SYMATTR InstName X1
SYMBOL Misc\\jumper -1888 -992 R0
SYMATTR InstName X2
SYMBOL source-I -1072 -1008 M270
WINDOW 123 0 0 Left 2
WINDOW 39 29 -9 Left 2
SYMATTR SpiceLine load
SYMATTR InstName I3
SYMATTR Value 130n
SYMBOL res -1120 -880 R0
SYMATTR InstName R7
SYMATTR Value 1k
SYMBOL res -416 -896 R0
SYMATTR InstName R8
SYMATTR Value 1k
TEXT -1400 -1544 Left 4 ;Eingangsstufe ua741
TEXT -1730 -536 Left 2 !.tran 3m
TEXT -1584 -472 Left 2 !.model NPN1 npn ( Is={Ic0/exp(Vbe0/VT)}  Bf={betaNPN} VA=50V)\n.model PNP1 pnp ( Is={Ic0/exp(Veb0/VT)}  Bf={betaPNP} VA=50V)
TEXT -808 -504 Left 2 !.param Vplus=10V\n.param m=25\n.param Ic0=.5m\n.param Vbe0 = 0.6V\n.param Veb0 = 0.6V\n.param VT=26mV\n.param betaNPN=200\n.param betaPNP=100
LINE Normal -1584 -896 -1552 -928 1
LINE Normal -1280 -896 -1248 -928 1
LINE Normal -1440 -896 -1408 -928 1
LINE Normal -832 -912 -800 -944 1
LINE Normal -528 -912 -496 -944 1
LINE Normal -688 -912 -656 -944 1
RECTANGLE Normal -1008 -544 -1728 -1616 2
RECTANGLE Normal -256 -560 -976 -1632 2
