Version 4
SHEET 1 880 680
WIRE 48 -176 -16 -176
WIRE 224 -176 192 -176
WIRE 240 -176 224 -176
WIRE -16 0 -16 -176
WIRE -16 96 -16 80
FLAG -16 96 0
FLAG 224 -176 mod
SYMBOL SpecialFunctions\\modulate2 48 -176 R0
WINDOW 3 -41 124 Left 2
SYMATTR Value space={F0} mark={F1}
SYMATTR InstName A1
SYMBOL voltage -16 -16 R0
WINDOW 123 0 0 Left 2
WINDOW 39 0 0 Left 2
WINDOW 3 -85 148 Left 2
SYMATTR Value PULSE(0 1 0 {tb})
SYMATTR InstName V1
TEXT -96 -464 Left 2 !.param F0=900\n.param F1=1.1k\n.param tb = 20m
TEXT -88 -288 Left 2 ;.tran 0 {tb} 0
TEXT -80 -312 Left 2 ;.options plotwinsize=0
TEXT 168 -384 Left 2 !.tran 0 {25/(fsig)} 0 {1/(1k*fsig)}
