Version 4
SHEET 1 1180 680
WIRE 464 -304 -336 -304
WIRE 304 0 -16 0
WIRE 48 96 16 96
WIRE 464 96 464 -304
WIRE 464 96 272 96
WIRE 592 96 464 96
WIRE -16 160 -16 0
WIRE 48 160 -16 160
WIRE 448 160 272 160
WIRE 304 224 304 0
WIRE 304 224 272 224
WIRE 320 224 304 224
WIRE 448 224 448 160
WIRE 448 224 400 224
WIRE 480 224 448 224
WIRE 592 224 592 96
WIRE 592 224 560 224
WIRE 1088 224 1088 192
WIRE -336 288 -336 -304
WIRE 48 288 -336 288
WIRE 304 288 272 288
WIRE 304 336 304 288
WIRE 448 336 448 224
WIRE -336 416 -336 288
WIRE -336 576 -336 496
FLAG 16 96 0
FLAG -336 576 0
FLAG 304 400 0
FLAG 448 400 0
SYMBOL Misc\\NE555 160 192 R0
SYMATTR InstName U1
SYMBOL voltage -336 400 R0
WINDOW 123 0 0 Left 2
WINDOW 39 0 0 Left 2
SYMATTR InstName V1
SYMATTR Value 15V
SYMBOL res 416 208 R90
WINDOW 0 0 56 VBottom 2
WINDOW 3 32 56 VTop 2
SYMATTR InstName R1
SYMATTR Value 33k
SYMBOL res 576 208 R90
WINDOW 0 0 56 VBottom 2
WINDOW 3 32 56 VTop 2
SYMATTR InstName R2
SYMATTR Value 3.3k
SYMBOL cap 288 336 R0
SYMATTR InstName C1
SYMATTR Value 100n
SYMBOL cap 432 336 R0
SYMATTR InstName C2
SYMATTR Value 470p
SYMBOL nmos 864 320 R0
SYMATTR InstName M1
SYMBOL nmos 1040 224 R0
SYMATTR InstName M2
SYMBOL pmos 848 112 M180
SYMATTR InstName M3
SYMBOL pmos 1040 192 M180
SYMATTR InstName M4
