Version 4
SHEET 1 880 1768
WIRE -224 -384 -256 -384
WIRE -176 -384 -224 -384
WIRE -224 -336 -224 -384
WIRE -368 -208 -400 -208
WIRE -320 -208 -368 -208
WIRE -224 -192 -224 -256
WIRE -368 -160 -368 -208
WIRE -368 -16 -368 -80
WIRE -320 32 -336 32
WIRE -272 32 -320 32
WIRE -336 96 -336 32
WIRE -336 240 -336 176
WIRE -192 368 -304 368
WIRE -96 368 -192 368
WIRE 16 368 0 368
WIRE 80 368 16 368
WIRE 544 368 176 368
WIRE 576 368 544 368
WIRE 672 368 576 368
WIRE 704 368 672 368
WIRE -16 448 -16 416
WIRE 96 448 96 416
WIRE 96 448 -16 448
WIRE 704 464 704 368
WIRE -256 496 -304 496
WIRE 176 496 -256 496
WIRE 288 496 272 496
WIRE 352 496 288 496
WIRE 480 496 448 496
WIRE 544 496 544 368
WIRE 544 496 480 496
WIRE 480 512 480 496
WIRE 256 576 256 544
WIRE 368 576 368 544
WIRE 368 576 256 576
WIRE 704 576 704 544
WIRE 368 592 368 576
WIRE 480 592 480 576
WIRE 480 592 368 592
WIRE 368 624 368 592
WIRE 480 624 480 592
WIRE 368 720 368 704
WIRE 480 720 480 688
WIRE 480 720 368 720
WIRE 16 752 16 368
WIRE 96 752 96 448
WIRE 288 752 288 496
WIRE 368 752 368 720
WIRE 496 832 448 832
WIRE 544 832 544 496
WIRE 544 832 496 832
WIRE -192 848 -192 368
WIRE -64 848 -192 848
WIRE 496 848 496 832
WIRE 544 848 544 832
WIRE -192 864 -192 848
WIRE 496 944 496 928
WIRE 496 944 448 944
WIRE 688 944 496 944
WIRE -192 976 -192 944
WIRE -64 976 -192 976
WIRE -192 992 -192 976
WIRE 544 1056 544 928
WIRE 544 1056 448 1056
WIRE 688 1056 544 1056
WIRE -192 1104 -192 1072
WIRE -64 1104 -192 1104
WIRE -48 1104 -64 1104
WIRE -192 1120 -192 1104
WIRE -256 1232 -256 496
WIRE -64 1232 -256 1232
WIRE -256 1248 -256 1232
WIRE 512 1280 448 1280
WIRE -256 1360 -256 1328
WIRE -64 1360 -256 1360
WIRE -256 1376 -256 1360
WIRE 512 1392 512 1280
WIRE 512 1392 448 1392
WIRE -256 1488 -256 1456
WIRE -64 1488 -256 1488
WIRE -256 1504 -256 1488
WIRE 512 1504 512 1392
WIRE 512 1504 448 1504
WIRE 512 1552 512 1504
WIRE -256 1616 -256 1584
WIRE 16 1616 16 1584
WIRE 192 1616 192 1584
WIRE 368 1616 368 1584
WIRE 512 1648 512 1616
WIRE 368 1712 368 1680
WIRE 192 1728 192 1696
FLAG -368 -208 V1
FLAG -368 -16 0
FLAG -336 240 0
FLAG -320 32 EN
FLAG -304 368 V1
FLAG -256 1616 0
FLAG -304 496 V2
FLAG -192 1200 0
FLAG 16 1616 0
FLAG 192 1728 0
FLAG 368 1712 0
FLAG 512 1648 0
FLAG 576 432 0
FLAG 672 368 out
FLAG -224 -192 0
FLAG -224 -384 V2
FLAG 688 944 val1
FLAG 688 1056 val2
FLAG 704 576 0
SYMBOL MDB_sym\\source-V -368 -176 R0
WINDOW 123 0 0 Left 0
WINDOW 39 28 54 Left 2
SYMATTR InstName V1
SYMATTR Value PULSE(5 0 30m 30m 30m)
SYMATTR SpiceLine Rser=10m
SYMBOL MDB_sym\\source-V -336 80 R0
WINDOW 123 0 0 Left 0
WINDOW 39 28 107 Left 2
SYMATTR InstName V2
SYMATTR Value PULSE(0 12 0 10n 10n 100m 20m)
SYMATTR SpiceLine Rser=10m
SYMBOL PowerProducts\\LTC4418 192 1168 R0
SYMATTR InstName U1
SYMBOL pmos -96 416 R270
SYMATTR InstName M1
SYMATTR Value FDS4435A
SYMBOL res -176 848 M0
SYMATTR InstName R1
SYMATTR Value 1Meg
SYMBOL res -176 976 M0
SYMATTR InstName R2
SYMATTR Value 60.4k
SYMBOL res -176 1104 M0
SYMATTR InstName R3
SYMATTR Value 226k
SYMBOL res -240 1232 M0
SYMATTR InstName R4
SYMATTR Value 1Meg
SYMBOL res -240 1360 M0
SYMATTR InstName R5
SYMATTR Value 33k2
SYMBOL res -240 1488 M0
SYMATTR InstName R6
SYMATTR Value 78k7
SYMBOL res 176 1600 R0
SYMATTR InstName R7
SYMATTR Value 255k
SYMBOL cap 352 1616 R0
SYMATTR InstName C3
SYMATTR Value 1n
SYMBOL cap 496 1552 R0
SYMATTR InstName C4
SYMATTR Value 100n
SYMBOL cap 560 368 R0
SYMATTR InstName C5
SYMATTR Value 80µ
SYMBOL res 352 608 R0
SYMATTR InstName R8
SYMATTR Value 698
SYMBOL cap 464 512 R0
SYMATTR InstName C6
SYMATTR Value 47n
SYMBOL schottky 496 688 R180
WINDOW 0 24 64 Left 2
WINDOW 3 -147 25 Left 2
SYMATTR InstName D1
SYMATTR Value BAS40-04HM
SYMBOL res 480 832 R0
SYMATTR InstName R9
SYMATTR Value 100k
SYMBOL res 528 832 R0
SYMATTR InstName R10
SYMATTR Value 100k
SYMBOL pmos 176 544 R270
SYMATTR InstName M3
SYMATTR Value FDS4435A
SYMBOL pmos 448 544 M270
SYMATTR InstName M4
SYMATTR Value FDS4435A
SYMBOL pmos 176 416 M270
SYMATTR InstName M5
SYMATTR Value FDS4435A
SYMBOL MDB_sym\\source-V -224 -352 R0
WINDOW 123 0 0 Left 0
WINDOW 39 28 54 Left 2
SYMATTR InstName V3
SYMATTR Value 12V
SYMATTR SpiceLine Rser=10m
SYMBOL res 688 448 R0
SYMATTR InstName RL
SYMATTR Value 5
TEXT -432 1752 Left 2 !.tran 200m
