Version 4
SHEET 1 3092 2132
WIRE 1792 -192 1744 -192
WIRE 2224 -192 2208 -192
WIRE 2304 -192 2224 -192
WIRE 2320 -192 2304 -192
WIRE 2208 -176 2208 -192
WIRE 1792 -160 1792 -192
WIRE 2208 -80 2208 -96
WIRE 1792 0 1792 -80
WIRE 1792 0 1664 0
WIRE 1856 0 1792 0
WIRE 1888 0 1856 0
WIRE 2016 0 1968 0
WIRE 1664 16 1664 0
WIRE 2272 16 2208 16
WIRE 2288 16 2272 16
WIRE 1968 32 1968 0
WIRE 2208 32 2208 16
WIRE 1888 48 1888 0
WIRE 1840 80 1808 80
WIRE 1856 80 1840 80
WIRE 1792 96 1792 0
WIRE 2208 128 2208 112
WIRE 1664 144 1664 96
WIRE 1712 144 1664 144
WIRE 1728 144 1712 144
WIRE 1888 144 1888 96
WIRE 1968 144 1968 112
WIRE 1664 192 1664 144
WIRE 1792 240 1792 192
WIRE 1664 304 1664 272
WIRE 1792 304 1792 240
WIRE 1792 304 1664 304
WIRE 2224 304 2208 304
WIRE 2288 304 2224 304
WIRE 2304 304 2288 304
WIRE 1792 336 1792 304
WIRE 2208 336 2208 304
WIRE 1792 416 1792 384
WIRE 1120 576 1072 576
WIRE 1872 576 1824 576
WIRE 1120 608 1120 576
WIRE 1872 608 1872 576
WIRE 1120 736 1120 688
WIRE 1120 736 912 736
WIRE 1232 736 1120 736
WIRE 1872 736 1872 688
WIRE 1872 736 1648 736
WIRE 2016 736 1872 736
WIRE 912 768 912 736
WIRE 1648 768 1648 736
WIRE 1232 800 1232 736
WIRE 1968 800 1936 800
WIRE 1984 800 1968 800
WIRE 2016 816 2016 736
WIRE 912 880 912 848
WIRE 960 880 912 880
WIRE 1040 880 960 880
WIRE 1232 880 1232 832
WIRE 1232 880 1152 880
WIRE 1648 880 1648 848
WIRE 1696 880 1648 880
WIRE 1760 880 1696 880
WIRE 1776 880 1760 880
WIRE 1792 880 1776 880
WIRE 1952 880 1872 880
WIRE 2016 880 2016 848
WIRE 2016 880 1952 880
WIRE 1152 912 1152 880
WIRE 1232 912 1232 880
WIRE 1760 912 1760 880
WIRE 1872 912 1872 880
WIRE 1952 912 1952 880
WIRE 1792 928 1792 880
WIRE 1648 992 1648 880
WIRE 1040 1008 1040 992
WIRE 1760 1024 1760 992
WIRE 1792 1024 1792 976
WIRE 1792 1024 1760 1024
WIRE 1840 1024 1792 1024
WIRE 1872 1024 1872 992
WIRE 1872 1024 1840 1024
WIRE 1952 1024 1952 992
WIRE 1952 1024 1872 1024
WIRE 912 1088 912 880
WIRE 1648 1088 1648 1072
WIRE 1872 1088 1872 1024
WIRE 1872 1088 1648 1088
WIRE 1040 1104 1040 1088
WIRE 1152 1104 1152 992
WIRE 1152 1104 1040 1104
WIRE 1200 1104 1152 1104
WIRE 1232 1104 1232 992
WIRE 1232 1104 1200 1104
WIRE 1872 1136 1872 1088
WIRE 912 1184 912 1168
WIRE 1152 1184 1152 1104
WIRE 1152 1184 912 1184
WIRE 1152 1200 1152 1184
WIRE 1872 1216 1872 1184
WIRE 1728 1248 1728 1232
WIRE 1152 1280 1152 1248
WIRE 976 1312 976 1296
FLAG 1792 416 0
FLAG 2016 0 Vin-c
FLAG 1968 144 0
FLAG 1888 144 0
FLAG 2208 416 0
FLAG 1712 144 B1
FLAG 1792 240 E1
FLAG 1776 880 B10
FLAG 1840 1024 E10
FLAG 1952 880 C10
FLAG 1872 1216 0
FLAG 2288 304 Vce
FLAG 1728 1248 0
FLAG 960 880 B11
FLAG 1200 1104 E11
FLAG 1232 880 C11
FLAG 1152 1280 0
FLAG 976 1312 0
FLAG 2208 128 0
FLAG 2208 16 re
FLAG 2208 -80 0
FLAG 2224 -192 rpi
FLAG 1824 1248 0
DATAFLAG 1856 0 "round(1e2*$)/1e2"
DATAFLAG 2224 304 "round(1e2*$)/1e2"
DATAFLAG 2016 736 "round(1e2*$)/1e2"
DATAFLAG 1840 80 "round(1e5*Ic(Q2))/1e5"
DATAFLAG 1968 800 "round(1e5*I(Ic10))/1e5"
DATAFLAG 1664 144 "round(1e2*$)/1e2"
DATAFLAG 1696 880 "round(1e2*$)/1e2"
DATAFLAG 1232 736 "round(1e2*$)/1e2"
DATAFLAG 1184 832 "round(1e5*I(Ic11))/1e5"
DATAFLAG 912 880 "round(1e2*$)/1e2"
DATAFLAG 2272 16 "round(1e2*$)/1e2A"
DATAFLAG 2304 -192 "round(1e-1*$)/1e-1A"
DATAFLAG 1040 864 "round(1e5*I(Ib11))/1e5"
SYMBOL EIT_Semiconductors\\npn 1728 96 R0
SYMATTR InstName Q2
SYMATTR Value BC547B
SYMBOL res 1648 0 R0
SYMATTR InstName R6
SYMATTR Value {R1}
SYMBOL res 1648 176 R0
SYMATTR InstName R7
SYMATTR Value {R2}
SYMBOL res 1776 -176 R0
SYMATTR InstName R9
SYMATTR Value {Rc}
SYMBOL MDB_sym\\source-Vmarker 1744 -192 R0
SYMATTR Value V=15V
SYMATTR InstName U1
SYMBOL crtl-V-V 1968 16 R0
SYMATTR InstName E1
SYMATTR Value 1
SYMBOL bv 2208 320 R0
WINDOW 0 31 85 Left 2
WINDOW 3 -74 130 Left 2
SYMATTR InstName Vce
SYMATTR Value V=V(B1,E1)*((R1/R2)+1)
SYMBOL MDB_sym\\jumper 1856 368 R90
SYMATTR InstName X2
SYMBOL crtl-V-I_INV 1872 896 R0
SYMATTR InstName G1
SYMATTR Value {bet*gm}
SYMBOL res 1744 1136 M0
SYMATTR InstName Rpi
SYMATTR Value {rpi}
SYMBOL res 1936 896 R0
SYMATTR InstName R0
SYMATTR Value {r0}
SYMBOL res 1632 752 R0
SYMATTR InstName R11
SYMATTR Value {R1}
SYMBOL res 1632 976 R0
SYMATTR InstName R12
SYMATTR Value {R2}
SYMBOL MDB_sym\\jumper 1936 1168 R90
SYMATTR InstName X3
SYMBOL res 1856 592 R0
SYMATTR InstName R13
SYMATTR Value {Rc}
SYMBOL MDB_sym\\arrow_curr 2016 832 R0
SYMATTR InstName Ic10
SYMBOL res 992 1200 M0
SYMATTR InstName Rpi1
SYMATTR Value {rpi}
SYMBOL res 1216 896 R0
SYMATTR InstName R14
SYMATTR Value {r0}
SYMBOL res 896 752 R0
SYMATTR InstName R15
SYMATTR Value {R1}
SYMBOL res 896 1072 R0
SYMATTR InstName R16
SYMATTR Value {R2}
SYMBOL MDB_sym\\jumper 1216 1232 R90
SYMATTR InstName X4
SYMBOL res 1104 592 R0
SYMATTR InstName R17
SYMATTR Value {Rc}
SYMBOL MDB_sym\\source-Vmarker 1072 576 R0
SYMATTR Value V=15V
SYMATTR InstName U4
SYMBOL MDB_sym\\arrow_curr 1232 816 R0
WINDOW 0 11 6 Left 2
SYMATTR InstName Ic11
SYMBOL bv 2208 16 R0
WINDOW 0 17 96 Left 2
WINDOW 3 -65 145 Left 2
SYMATTR InstName B1
SYMATTR Value V={alp*VT/ Ic(Q2)}
SYMBOL bv 2208 -192 R0
WINDOW 0 24 98 Left 2
WINDOW 3 -69 148 Left 2
SYMATTR InstName B2
SYMATTR Value V={bet*VT/ Ic(Q2)}
SYMBOL MDB_sym\\source-V 1824 1152 M0
WINDOW 123 0 0 Left 2
WINDOW 39 0 0 Left 2
SYMATTR InstName V1
SYMATTR Value .67
SYMBOL MDB_sym\\arrow_curr 1040 896 R0
SYMATTR InstName Ib11
SYMBOL MDB_sym\\source-Vmarker 1824 576 R0
SYMATTR Value V=0V
SYMATTR InstName U5
SYMBOL bi 1152 912 R0
WINDOW 3 104 91 Left 2
SYMATTR InstName B3
SYMATTR Value I=V(B11,E11)*-gm
SYMBOL res 1056 896 M0
SYMATTR InstName R1
SYMATTR Value {rpi}
SYMBOL MDB_sym\\source-V 1040 992 M0
WINDOW 123 0 0 Left 2
WINDOW 39 0 0 Left 2
SYMATTR InstName V2
SYMATTR Value .67
TEXT 952 48 Left 2 !.param Tsim = 25s\n+ Vref = 1.5V\n+ Vbe02 = .65V\n+ Iset = 3A\n+ Ic0 = {Iset}\n+ beta = 200\n+ Rp = 8k\n+ x = .5\n+ Vz = 16V\n+ Vinm = 5V\n+ Rx = {Rp*x*(1-x)}\n+ Vx = {Vz*(1-x)}\n+ Rpu = 10k\n+ Vpu = 10V\n+ Rf = 200k\n+ Cd = 1p
TEXT 944 -64 Left 2 !.model npnx npn ( \n+ Is={Ic0/exp(Vbe02/26m)}\n+ Bf = {beta})
TEXT 1234 216 Left 2 !.tran 0 4 2 \n.op
TEXT 1872 -248 Left 2 !.param bet = 200\n+ alp = {bet/(bet+1) }\n+ Rc = 2200\n+ R1 = 6k\n+ R2 = 2k
TEXT 936 -336 Left 2 !.param gm = {-IC0_10/VT}\n+ VT = 26mV\n+ IC0_10 = 5mA\n+ VA = 80V\n+ beta10 = 200\n+ alpha10 = {beta10/(beta10+1)} \n+ r0 = {VA/IC0_10}\n+ rpi = {beta10*VT/IC0_10}\n+ re = {alpha10*VT/IC0_10}
TEXT 2176 240 Left 2 ;_Naeherung_Tietze
TEXT 1584 -336 Left 2 ;_Emittergrundschaltung_mit_Spannungs-\n_Gegenkopplung_zur_AP_Stabilisierung
TEXT 2176 -336 Left 2 ;_Emitterschaltung\nrin = rpi = beta*VT/Ic0\nrout = r0 = VA/Ic0\nGm = -gm = -Ic0/VT
RECTANGLE Normal 2416 496 1568 -368 2
RECTANGLE Normal 2416 496 2112 208 2
RECTANGLE Normal 2256 1312 1568 544 2
RECTANGLE Normal 1520 1376 832 528 2
RECTANGLE Normal 2416 208 2112 -368 2
