Version 4
SHEET 1 908 680
WIRE -112 -704 -400 -704
WIRE 96 -704 -32 -704
WIRE -224 -608 -256 -608
WIRE -144 -608 -224 -608
WIRE 176 -608 -144 -608
WIRE 352 -608 176 -608
WIRE -144 -576 -144 -608
WIRE 176 -576 176 -608
WIRE 352 -544 352 -608
WIRE 288 -496 256 -496
WIRE -144 -464 -144 -496
WIRE -144 -464 -224 -464
WIRE -64 -464 -144 -464
WIRE -224 -432 -224 -464
WIRE -64 -432 -64 -464
WIRE 352 -416 352 -448
WIRE -400 -384 -400 -704
WIRE -320 -384 -400 -384
WIRE -288 -384 -320 -384
WIRE 16 -384 0 -384
WIRE -320 -304 -400 -304
WIRE 16 -304 16 -384
WIRE 16 -304 -320 -304
WIRE 352 -304 352 -336
WIRE 448 -304 352 -304
WIRE 528 -304 448 -304
WIRE -224 -288 -224 -336
WIRE -64 -288 -64 -336
WIRE 176 -288 176 -496
WIRE 176 -288 96 -288
WIRE 256 -288 256 -496
WIRE 256 -288 176 -288
WIRE -400 -256 -400 -304
WIRE 352 -256 352 -304
WIRE 528 -256 528 -304
WIRE 96 -224 96 -288
WIRE -224 -176 -224 -208
WIRE -144 -176 -224 -176
WIRE -64 -176 -64 -208
WIRE -16 -176 -64 -176
WIRE 32 -176 16 -176
WIRE 176 -176 176 -288
WIRE -224 -144 -224 -176
WIRE -64 -144 -64 -176
WIRE 352 -144 352 -176
WIRE 112 -128 96 -128
WIRE 528 -128 528 -176
WIRE -144 -96 -144 -176
WIRE -144 -96 -160 -96
WIRE -128 -96 -144 -96
WIRE 256 -96 256 -288
WIRE 288 -96 256 -96
WIRE -288 0 -352 0
WIRE -224 0 -224 -48
WIRE -224 0 -288 0
WIRE -64 0 -64 -48
WIRE -64 0 -224 0
WIRE 176 0 176 -80
WIRE 176 0 -64 0
WIRE 352 0 352 -48
WIRE 352 0 176 0
WIRE 96 144 64 144
WIRE 112 144 96 144
WIRE 224 144 192 144
WIRE 288 144 224 144
WIRE 64 160 64 144
WIRE 224 160 224 144
WIRE 64 256 64 240
WIRE 224 256 224 224
FLAG 224 256 0
FLAG 96 144 e
FLAG 224 144 a
FLAG 64 256 0
FLAG -288 0 V-
FLAG -320 -384 I-
FLAG -320 -304 I+
FLAG -224 -608 V+
FLAG 448 -304 out
FLAG 96 -704 out
FLAG -400 -176 0
FLAG 528 -128 0
SYMBOL res 96 160 R270
WINDOW 0 25 56 VTop 2
WINDOW 3 7 56 VBottom 2
SYMATTR InstName R1
SYMATTR Value {R}
SYMBOL cap 208 160 R0
SYMATTR InstName C1
SYMATTR Value {C}
SYMBOL BOR_sym\\source-V 64 144 M0
WINDOW 123 20 91 Left 2
WINDOW 39 0 0 Left 2
SYMATTR InstName V1
SYMATTR Value ""
SYMATTR Value2 AC 1
SYMBOL BOR_sym\\EIT_Semiconductors\\npn -160 -144 M0
SYMATTR InstName Q3
SYMATTR Value NPNx
SYMBOL BOR_sym\\EIT_Semiconductors\\npn -128 -144 R0
SYMATTR InstName Q4
SYMATTR Value NPNx
SYMBOL BOR_sym\\source-I -144 -496 R180
WINDOW 0 29 73 Left 2
WINDOW 3 29 17 Left 2
WINDOW 123 0 0 Left 2
WINDOW 39 0 0 Left 2
SYMATTR InstName I1
SYMATTR Value {I0}
SYMBOL BOR_sym\\source-Vmarker -352 0 R0
SYMATTR Value V={-Vp}
SYMATTR InstName U1
SYMBOL BOR_sym\\source-Vmarker -256 -608 R0
SYMATTR Value V={Vp}
SYMATTR InstName U2
SYMBOL MDB_sym\\arrow_curr 0 -176 R270
WINDOW 0 4 0 VTop 2
SYMATTR InstName dv
SYMBOL BOR_sym\\EIT_Semiconductors\\npn 32 -224 R0
SYMATTR InstName Q5
SYMATTR Value NPNx
SYMBOL BOR_sym\\EIT_Semiconductors\\npn 112 -176 R0
SYMATTR InstName Q6
SYMATTR Value NPNx
SYMBOL BOR_sym\\source-I 176 -496 R180
WINDOW 0 29 73 Left 2
WINDOW 3 29 17 Left 2
WINDOW 123 0 0 Left 2
WINDOW 39 0 0 Left 2
SYMATTR InstName I2
SYMATTR Value {Id0}
SYMBOL BOR_sym\\EIT_Semiconductors\\npn 288 -544 R0
SYMATTR InstName Q7
SYMATTR Value NPNx
SYMBOL BOR_sym\\EIT_Semiconductors\\pnp 288 -48 M180
SYMATTR InstName Q8
SYMATTR Value PNPx
SYMBOL BOR_sym\\EIT_Semiconductors\\pnp -288 -336 M180
SYMATTR InstName Q1
SYMATTR Value PNPx
SYMBOL BOR_sym\\EIT_Semiconductors\\pnp 0 -336 R180
SYMATTR InstName Q2
SYMATTR Value PNPx
SYMBOL res -16 -720 R90
WINDOW 0 7 56 VBottom 2
WINDOW 3 25 56 VTop 2
SYMATTR InstName R2
SYMATTR Value 1k
SYMBOL BOR_sym\\source-V -400 -272 M0
WINDOW 123 0 0 Left 2
WINDOW 39 0 0 Left 2
SYMATTR InstName V3
SYMATTR Value SINE(0 .2 1k)
SYMBOL res -240 -304 R0
SYMATTR InstName R3
SYMATTR Value {Re}
SYMBOL res -80 -304 R0
SYMATTR InstName R4
SYMATTR Value {Re}
SYMBOL res 336 -432 R0
SYMATTR InstName R6
SYMATTR Value {Rop}
SYMBOL res 336 -272 R0
SYMATTR InstName R7
SYMATTR Value {Rop}
SYMBOL res 512 -272 R0
SYMATTR InstName R5
SYMATTR Value {10meg}
TEXT 24 24 Left 2 !.param firstOrder=1\n+ R=68k\n+ C=6.8p
TEXT 12 304 Left 2 ;.ac oct 100 100rad 10meg rad
TEXT -320 368 Left 2 !.model npnx npn(Is={Ic0/(exp(Vbe0/VT)+1)} Bf=200)\n.model pnpx pnp(Is={Ic0/(exp(Vbe0/VT)+1)} Bf=200)
TEXT -352 32 Left 2 !.param op=1\n+ I0=20uA\n+ Ic0=20uA\n+ Id0=1mA\n+ Vp=10V\n+ Vbe0=.65V\n+ VT=26mV\n+ Re=1
TEXT -378 308 Left 2 ;.dc V2 {-3*VT} {3*VT} .5mV
TEXT -564 -80 Left 2 !.tran {3/1k}
TEXT 456 -400 Left 2 !.param Rop=.1
