Version 4
SHEET 1 1896 680
WIRE -336 -592 -416 -592
WIRE -272 -592 -336 -592
WIRE -144 -592 -208 -592
WIRE -48 -592 -144 -592
WIRE 960 -592 32 -592
WIRE -336 -560 -336 -592
WIRE -144 -560 -144 -592
WIRE 960 -544 960 -592
WIRE 1152 -464 1056 -464
WIRE 1280 -464 1216 -464
WIRE 1360 -464 1280 -464
WIRE 1504 -464 1440 -464
WIRE 1616 -464 1504 -464
WIRE -336 -448 -336 -496
WIRE -144 -448 -144 -496
WIRE 960 -448 960 -464
WIRE 960 -448 896 -448
WIRE 1280 -448 1280 -464
WIRE 1504 -448 1504 -464
WIRE 896 -432 896 -448
WIRE 1616 -416 1616 -464
WIRE 688 -400 544 -400
WIRE 784 -400 688 -400
WIRE 960 -400 784 -400
WIRE 1056 -400 1056 -464
WIRE 544 -368 544 -400
WIRE 688 -368 688 -400
WIRE 784 -368 784 -400
WIRE -416 -304 -416 -592
WIRE -416 -304 -432 -304
WIRE 688 -288 688 -304
WIRE 784 -288 688 -288
WIRE 848 -288 784 -288
WIRE 960 -288 960 -320
WIRE 960 -288 912 -288
WIRE 1056 -272 1056 -320
WIRE 1280 -272 1280 -384
WIRE 1280 -272 1056 -272
WIRE 1504 -272 1504 -384
WIRE 1504 -272 1280 -272
WIRE 1616 -272 1616 -336
WIRE 1616 -272 1504 -272
WIRE 224 -240 96 -240
WIRE -416 -224 -416 -304
WIRE 544 -224 544 -288
WIRE 1280 -224 1280 -272
WIRE 96 -192 96 -240
WIRE 1280 -96 1280 -144
WIRE 96 -80 96 -112
WIRE 224 -48 224 -240
WIRE 224 -32 224 -48
WIRE 960 -32 960 -288
WIRE -416 16 -416 -144
WIRE 64 16 -416 16
WIRE 720 48 384 48
WIRE 912 48 800 48
WIRE -416 80 -416 16
WIRE -320 80 -416 80
WIRE -64 80 -240 80
WIRE 64 80 0 80
WIRE -64 144 -160 144
WIRE 64 144 -64 144
WIRE 752 176 384 176
WIRE 960 176 960 64
WIRE 960 176 832 176
WIRE -416 256 -416 80
WIRE -160 256 -160 144
WIRE -64 256 -64 144
WIRE 960 256 960 176
WIRE -64 352 -64 320
WIRE 224 352 224 272
WIRE 960 368 960 336
WIRE -416 384 -416 336
WIRE -160 400 -160 336
WIRE 64 400 64 208
WIRE 64 400 -160 400
WIRE -160 416 -160 400
WIRE -160 528 -160 480
FLAG -64 352 0
FLAG -160 528 0
FLAG -416 384 0
FLAG 960 368 0
FLAG 224 352 0
FLAG -336 -448 0
FLAG -144 -448 0
FLAG 96 -80 0
FLAG 896 -432 0
FLAG 544 -224 0
FLAG 1280 -96 0
SYMBOL PowerProducts\\LT1241 224 112 R0
SYMATTR InstName U1
SYMBOL cap -80 256 R0
SYMATTR InstName C1
SYMATTR Value 100n
SYMBOL cap 0 64 R90
WINDOW 0 0 32 VBottom 2
WINDOW 3 32 32 VTop 2
SYMATTR InstName C2
SYMATTR Value 10n
SYMBOL cap -352 -560 R0
SYMATTR InstName C4
SYMATTR Value 220n
SYMBOL cap -160 -560 R0
SYMATTR InstName C5
SYMATTR Value 100p
SYMBOL cap 1264 -448 R0
SYMATTR InstName C8
SYMATTR Value 100n
SYMBOL cap 1488 -448 R0
SYMATTR InstName C9
SYMATTR Value 100n
SYMBOL res -176 240 R0
SYMATTR InstName R2
SYMATTR Value 12k
SYMBOL res -432 240 R0
SYMATTR InstName R3
SYMATTR Value 10k
SYMBOL res -224 64 R90
WINDOW 0 0 56 VBottom 2
WINDOW 3 32 56 VTop 2
SYMATTR InstName R4
SYMATTR Value 200k
SYMBOL res 848 160 R90
WINDOW 0 0 56 VBottom 2
WINDOW 3 32 56 VTop 2
SYMATTR InstName R5
SYMATTR Value 1k
SYMBOL res 976 352 R180
WINDOW 0 36 76 Left 2
WINDOW 3 36 40 Left 2
SYMATTR InstName R6
SYMATTR Value 330m
SYMBOL res -400 -128 R180
WINDOW 0 36 76 Left 2
WINDOW 3 36 40 Left 2
SYMATTR InstName R7
SYMATTR Value 50k
SYMBOL res 704 64 R270
WINDOW 0 32 56 VTop 2
WINDOW 3 0 56 VBottom 2
SYMATTR InstName R9
SYMATTR Value 1
SYMBOL res -64 -576 R270
WINDOW 0 34 65 VTop 2
WINDOW 3 0 56 VBottom 2
SYMATTR InstName R11
SYMATTR Value 510
SYMBOL cap -176 416 R0
SYMATTR InstName C11
SYMATTR Value 220p
SYMBOL diode -208 -608 R90
WINDOW 0 0 32 VBottom 2
WINDOW 3 32 32 VTop 2
SYMATTR InstName D1
SYMBOL voltage 96 -208 R0
WINDOW 123 0 0 Left 2
WINDOW 39 24 44 Left 2
SYMATTR InstName V1
SYMATTR Value 12V
SYMATTR SpiceLine Rser=10m
SYMBOL diode 1152 -480 M90
WINDOW 0 0 32 VBottom 2
WINDOW 3 32 32 VTop 2
SYMATTR InstName D3
SYMBOL ind 1456 -480 R90
WINDOW 0 5 56 VBottom 2
WINDOW 3 32 56 VTop 2
SYMATTR InstName L1
SYMATTR Value 100n
SYMBOL ind2 976 -560 M0
SYMATTR InstName L2
SYMATTR Value 10µ
SYMATTR Type ind
SYMBOL ind2 976 -416 M0
SYMATTR InstName L3
SYMATTR Value 20µ
SYMATTR Type ind
SYMBOL ind2 1040 -304 M180
WINDOW 0 36 80 Left 2
WINDOW 3 36 40 Left 2
SYMATTR InstName L4
SYMATTR Value 100µ
SYMATTR Type ind
SYMBOL voltage 544 -384 R0
WINDOW 3 -80 58 Left 2
WINDOW 123 0 0 Left 2
WINDOW 39 -146 86 Left 2
SYMATTR InstName V2
SYMATTR Value 12V
SYMATTR SpiceLine Rser=10m
SYMBOL res 768 -384 R0
SYMATTR InstName R10
SYMATTR Value 27k
SYMBOL diode 912 -304 R90
WINDOW 0 0 32 VBottom 2
WINDOW 3 32 32 VTop 2
SYMATTR InstName D4
SYMBOL cap 672 -368 R0
SYMATTR InstName C3
SYMATTR Value 470p
SYMBOL nmos 912 -32 R0
SYMATTR InstName M1
SYMATTR Value IRFH5250
SYMBOL current 1616 -336 R180
WINDOW 0 24 80 Left 2
WINDOW 3 24 0 Left 2
WINDOW 123 0 0 Left 2
WINDOW 39 0 0 Left 2
SYMATTR InstName I1
SYMATTR Value PULSE(2 10 800u 50n 50n 400u 500u)
SYMBOL res 1264 -240 R0
SYMATTR InstName R1
SYMATTR Value 1000000k
TEXT -472 552 Left 2 !.tran 2m
TEXT 1712 -232 Left 2 !K L2 L3 L4 .85
