Version 4
SHEET 1 2716 680
WIRE 304 -592 -416 -592
WIRE 528 -592 304 -592
WIRE 640 -592 528 -592
WIRE 960 -592 704 -592
WIRE 304 -576 304 -592
WIRE 528 -560 528 -592
WIRE 960 -544 960 -592
WIRE 304 -480 304 -512
WIRE 1152 -464 1056 -464
WIRE 1280 -464 1216 -464
WIRE 1360 -464 1280 -464
WIRE 1504 -464 1504 -688
WIRE 1504 -464 1440 -464
WIRE 1728 -464 1504 -464
WIRE 2032 -464 1728 -464
WIRE 960 -448 960 -464
WIRE 960 -448 896 -448
WIRE 1280 -448 1280 -464
WIRE 1504 -448 1504 -464
WIRE 1728 -448 1728 -464
WIRE 2032 -448 2032 -464
WIRE 896 -432 896 -448
WIRE 688 -400 544 -400
WIRE 784 -400 688 -400
WIRE 960 -400 784 -400
WIRE 1056 -400 1056 -464
WIRE 544 -368 544 -400
WIRE 688 -368 688 -400
WIRE 784 -368 784 -400
WIRE 1728 -352 1728 -368
WIRE 1872 -352 1776 -352
WIRE 2032 -352 2032 -368
WIRE 2176 -352 2080 -352
WIRE 1776 -336 1776 -352
WIRE 2080 -336 2080 -352
WIRE -416 -304 -416 -592
WIRE -416 -304 -432 -304
WIRE 688 -288 688 -304
WIRE 784 -288 688 -288
WIRE 848 -288 784 -288
WIRE 960 -288 960 -320
WIRE 960 -288 912 -288
WIRE 1056 -272 1056 -320
WIRE 1280 -272 1280 -384
WIRE 1280 -272 1056 -272
WIRE 1504 -272 1504 -384
WIRE 1504 -272 1280 -272
WIRE 1728 -272 1504 -272
WIRE 1776 -272 1776 -288
WIRE 1776 -272 1728 -272
WIRE 1872 -272 1776 -272
WIRE 2032 -272 1872 -272
WIRE 2080 -272 2080 -288
WIRE 2080 -272 2032 -272
WIRE 2176 -272 2080 -272
WIRE 224 -240 96 -240
WIRE -416 -224 -416 -304
WIRE 544 -224 544 -288
WIRE 1280 -224 1280 -272
WIRE 96 -192 96 -240
WIRE 96 -80 96 -112
WIRE 224 -48 224 -240
WIRE 224 -32 224 -48
WIRE 960 -32 960 -288
WIRE -416 16 -416 -144
WIRE 64 16 -416 16
WIRE 720 48 384 48
WIRE 912 48 800 48
WIRE -416 80 -416 16
WIRE -320 80 -416 80
WIRE -64 80 -240 80
WIRE 64 80 0 80
WIRE -64 144 -160 144
WIRE 64 144 -64 144
WIRE 752 176 384 176
WIRE 960 176 960 64
WIRE 960 176 832 176
WIRE -416 256 -416 80
WIRE -160 256 -160 144
WIRE -64 256 -64 144
WIRE 960 256 960 176
WIRE -64 352 -64 320
WIRE 224 352 224 272
WIRE 960 368 960 336
WIRE -416 384 -416 336
WIRE -160 400 -160 336
WIRE 64 400 64 208
WIRE 64 400 -160 400
WIRE -160 416 -160 400
WIRE -160 528 -160 480
FLAG -64 352 0
FLAG -160 528 0
FLAG -416 384 0
FLAG 960 368 0
FLAG 224 352 0
FLAG 96 -80 0
FLAG 896 -432 0
FLAG 544 -224 0
FLAG 1280 -224 0
FLAG 528 -496 0
FLAG 304 -480 0
FLAG 80 -512 0
SYMBOL PowerProducts\\LT1241 224 112 R0
SYMATTR InstName U1
SYMBOL cap -80 256 R0
SYMATTR InstName C1
SYMATTR Value 100n
SYMBOL cap 0 64 R90
WINDOW 0 0 32 VBottom 2
WINDOW 3 32 32 VTop 2
SYMATTR InstName C2
SYMATTR Value 10n
SYMBOL cap 1264 -448 R0
SYMATTR InstName C8
SYMATTR Value 5
SYMBOL cap 1488 -448 R0
SYMATTR InstName C9
SYMATTR Value 5
SYMBOL res -176 240 R0
SYMATTR InstName R2
SYMATTR Value 5.6k
SYMBOL res -432 240 R0
SYMATTR InstName R3
SYMATTR Value 9k
SYMBOL res -224 64 R90
WINDOW 0 0 56 VBottom 2
WINDOW 3 32 56 VTop 2
SYMATTR InstName R4
SYMATTR Value 220k
SYMBOL res 848 160 R90
WINDOW 0 0 56 VBottom 2
WINDOW 3 32 56 VTop 2
SYMATTR InstName R5
SYMATTR Value 1k
SYMBOL res 976 352 R180
WINDOW 0 36 76 Left 2
WINDOW 3 36 40 Left 2
SYMATTR InstName R6
SYMATTR Value .1
SYMBOL res -400 -128 R180
WINDOW 0 36 76 Left 2
WINDOW 3 36 40 Left 2
SYMATTR InstName R7
SYMATTR Value 160k
SYMBOL res 704 64 R270
WINDOW 0 32 56 VTop 2
WINDOW 3 0 56 VBottom 2
SYMATTR InstName R9
SYMATTR Value 22
SYMBOL cap -176 416 R0
SYMATTR InstName C11
SYMATTR Value 1n
SYMBOL voltage 96 -208 R0
WINDOW 123 0 0 Left 2
WINDOW 39 24 44 Left 2
SYMATTR SpiceLine Rser=10m
SYMATTR InstName V1
SYMATTR Value 15v
SYMBOL diode 1152 -480 M90
WINDOW 0 0 32 VBottom 2
WINDOW 3 32 32 VTop 2
SYMATTR InstName D3
SYMBOL ind 1456 -480 R90
WINDOW 0 5 56 VBottom 2
WINDOW 3 32 56 VTop 2
SYMATTR InstName L1
SYMATTR Value 100n
SYMBOL ind2 976 -560 M0
SYMATTR InstName L2
SYMATTR Value 108.6
SYMATTR Type ind
SYMBOL ind2 976 -416 M0
SYMATTR InstName L3
SYMATTR Value 16.75
SYMATTR Type ind
SYMBOL ind2 1040 -304 M180
WINDOW 0 36 80 Left 2
WINDOW 3 36 40 Left 2
SYMATTR InstName L4
SYMATTR Value 108.6
SYMATTR Type ind
SYMBOL voltage 544 -384 R0
WINDOW 3 -80 58 Left 2
WINDOW 123 0 0 Left 2
WINDOW 39 -146 86 Left 2
SYMATTR Value 15v
SYMATTR SpiceLine Rser=10m
SYMATTR InstName V2
SYMBOL res 768 -384 R0
SYMATTR InstName R10
SYMATTR Value 27k
SYMBOL diode 912 -304 R90
WINDOW 0 0 32 VBottom 2
WINDOW 3 32 32 VTop 2
SYMATTR InstName D4
SYMBOL cap 672 -368 R0
SYMATTR InstName C3
SYMATTR Value 470p
SYMBOL nmos 912 -32 R0
SYMATTR InstName M1
SYMATTR Value IRFH5250
SYMBOL sw 1728 -256 R180
SYMATTR InstName S1
SYMATTR Value SW1
SYMBOL sw 2032 -256 R180
SYMATTR InstName S2
SYMATTR Value SW2
SYMBOL res 1712 -464 R0
SYMATTR InstName R8
SYMATTR Value 75
SYMBOL res 2016 -464 R0
SYMATTR InstName R12
SYMATTR Value 50
SYMBOL voltage 1872 -368 R0
WINDOW 123 0 0 Left 2
WINDOW 39 0 0 Left 2
SYMATTR InstName V3
SYMATTR Value PULSE(0 1 10u 10n 10n 1.5m 5)
SYMBOL voltage 2176 -368 R0
WINDOW 3 108 -46 Left 2
WINDOW 123 0 0 Left 2
WINDOW 39 0 0 Left 2
SYMATTR Value PULSE(0 1 2m 10n 10n 500u 5)
SYMATTR InstName V4
SYMBOL diode 704 -608 R90
WINDOW 0 0 32 VBottom 2
WINDOW 3 32 32 VTop 2
SYMATTR InstName D1
TEXT -472 552 Left 2 !.tran 2m
TEXT 1008 -536 Left 2 !K L2 L3 L4 .84756
TEXT 1632 -216 Left 2 !.model SW1 SW(Ron=1m Roff=10Meg Vt=.5 Vh=-.4)\n.model SW2 SW(Ron=1m Roff=10Meg Vt=.5 Vh=-.4)
