Version 4
SHEET 1 880 680
WIRE -304 160 -464 160
WIRE -272 160 -304 160
WIRE -128 160 -144 160
WIRE 32 160 -128 160
WIRE 144 160 112 160
WIRE -304 192 -352 192
WIRE -272 192 -304 192
WIRE 144 192 144 160
WIRE -128 224 -128 160
WIRE -464 272 -464 160
WIRE -352 272 -352 192
WIRE -128 352 -128 304
WIRE -464 384 -464 352
WIRE -352 384 -352 352
WIRE 144 416 144 256
FLAG 144 416 0
FLAG -464 384 0
FLAG -352 384 0
FLAG -304 160 saw
FLAG -304 192 puls
FLAG -128 352 0
SYMBOL source-V -352 256 R0
WINDOW 3 -228 167 Left 0
WINDOW 123 0 0 Left 0
WINDOW 39 0 0 Left 0
SYMATTR Value PULSE(0 1 3m 10n 10n 10u 20.02u)
SYMATTR InstName V1
SYMBOL res 16 176 R270
WINDOW 0 25 56 VTop 0
WINDOW 3 7 56 VBottom 0
SYMATTR InstName R1
SYMATTR Value 1k
SYMBOL cap 128 192 R0
SYMATTR InstName C1
SYMATTR Value 100n
SYMBOL source-V -464 256 R0
WINDOW 3 -304 77 Left 0
WINDOW 123 0 0 Left 0
WINDOW 39 0 0 Left 0
SYMATTR Value PULSE(10 0 0 10n 1m 1m 1m)
SYMATTR InstName V2
SYMBOL Function-V -128 208 R0
SYMATTR InstName B1
SYMATTR Value V=V(saw)*V(puls)
TEXT -768 448 Left 0 !.tran 15m
