Version 4
SHEET 1 1096 824
WIRE -144 -336 -208 -336
WIRE -64 -336 -144 -336
WIRE 0 -336 -64 -336
WIRE 320 -336 0 -336
WIRE 400 -336 320 -336
WIRE 464 -336 400 -336
WIRE -64 -304 -64 -336
WIRE 400 -304 400 -336
WIRE -144 -288 -144 -336
WIRE 464 -288 464 -336
WIRE 0 -208 0 -336
WIRE 320 -208 320 -336
WIRE -144 -192 -144 -208
WIRE -64 -192 -64 -240
WIRE -64 -192 -144 -192
WIRE -48 -192 -64 -192
WIRE 400 -192 400 -240
WIRE 400 -192 368 -192
WIRE 464 -192 464 -208
WIRE 464 -192 400 -192
WIRE -144 -176 -144 -192
WIRE 464 -176 464 -192
WIRE -352 -144 -384 -144
WIRE -240 -144 -288 -144
WIRE 560 -144 544 -144
WIRE 656 -144 624 -144
WIRE -384 -80 -384 -144
WIRE -384 -80 -448 -80
WIRE -368 -80 -384 -80
WIRE -240 -80 -240 -144
WIRE -240 -80 -288 -80
WIRE -144 -80 -144 -112
WIRE -144 -80 -240 -80
WIRE 0 -80 0 -112
WIRE 112 -80 0 -80
WIRE 320 -80 320 -112
WIRE 320 -80 192 -80
WIRE 464 -80 464 -112
WIRE 544 -80 544 -144
WIRE 544 -80 464 -80
WIRE 560 -80 544 -80
WIRE 656 -80 656 -144
WIRE 656 -80 640 -80
WIRE 736 -80 656 -80
WIRE -144 -48 -144 -80
WIRE 0 -48 0 -80
WIRE 320 -48 320 -80
WIRE 464 -48 464 -80
WIRE -240 -16 -240 -80
WIRE 544 -16 544 -80
WIRE -144 32 -144 16
WIRE -64 32 -144 32
WIRE -48 32 -64 32
WIRE 400 32 368 32
WIRE 464 32 464 16
WIRE 464 32 400 32
WIRE -144 48 -144 32
WIRE 464 48 464 32
WIRE -64 80 -64 32
WIRE 400 80 400 32
WIRE 544 80 544 48
WIRE -144 160 -144 128
WIRE -64 160 -64 144
WIRE 0 160 0 48
WIRE 320 160 320 48
WIRE 400 160 400 144
WIRE 464 160 464 128
WIRE -400 224 -448 224
WIRE -336 224 -400 224
WIRE -336 288 -336 224
WIRE -336 400 -336 368
WIRE -672 416 -672 384
WIRE -672 512 -672 496
WIRE -128 528 -128 448
WIRE 480 528 480 448
WIRE -304 576 -336 576
WIRE -192 576 -224 576
WIRE 576 576 544 576
WIRE -672 592 -672 560
WIRE -192 608 -192 576
WIRE 544 608 544 576
WIRE -672 688 -672 672
WIRE -192 720 -192 688
WIRE -128 720 -128 624
WIRE 480 720 480 624
WIRE 544 720 544 688
FLAG -192 720 0
FLAG -672 512 0
FLAG 0 160 0
FLAG -128 720 0
FLAG 544 720 0
FLAG 320 160 0
FLAG 480 720 0
FLAG -672 384 s
FLAG -336 400 0
FLAG -672 688 0
FLAG -672 560 s2
FLAG 464 160 0
FLAG -144 160 0
FLAG 656 576 0
FLAG -304 576 0
FLAG -400 224 sd
FLAG 656 -80 sd
FLAG -384 -80 s
FLAG 544 80 0
FLAG 400 160 0
FLAG -64 160 0
SYMBOL EIT_Semiconductors\\nmos -48 -48 R0
SYMATTR InstName M1
SYMATTR Value IRFH7936
SYMBOL EIT_Semiconductors\\pmos -48 -112 M180
SYMATTR InstName M2
SYMATTR Value IRF7404
SYMBOL source-V -672 400 R0
WINDOW 123 0 0 Left 2
WINDOW 39 28 107 Left 2
SYMATTR SpiceLine Rser=2
SYMATTR InstName V1
SYMATTR Value PULSE(0 {Vh} 0 1n 1n {0.9/(2*f0)} {1/(f0)})
SYMBOL res -160 -304 R0
SYMATTR InstName R1
SYMATTR Value 470
SYMBOL res -160 32 R0
SYMATTR InstName R2
SYMATTR Value 1.5k
SYMBOL res -208 560 R90
WINDOW 0 7 56 VBottom 2
WINDOW 3 25 56 VTop 2
SYMATTR InstName R3
SYMATTR Value 4.7k
SYMBOL res -176 704 R180
WINDOW 0 36 76 Left 2
WINDOW 3 36 40 Left 2
SYMATTR InstName R4
SYMATTR Value 68k
SYMBOL EIT_Semiconductors\\npn -192 528 R0
SYMATTR InstName Q1
SYMBOL EIT_Semiconductors\\nmos 368 -48 M0
SYMATTR InstName M3
SYMATTR Value IRFH7936
SYMBOL EIT_Semiconductors\\pmos 368 -112 R180
SYMATTR InstName M4
SYMATTR Value IRF7404
SYMBOL res 480 -304 M0
SYMATTR InstName R5
SYMATTR Value 470
SYMBOL res 560 560 M90
WINDOW 0 7 56 VBottom 2
WINDOW 3 25 56 VTop 2
SYMATTR InstName R7
SYMATTR Value 4.7k
SYMBOL res 528 704 M180
WINDOW 0 36 76 Left 2
WINDOW 3 36 40 Left 2
SYMATTR InstName R8
SYMATTR Value 68k
SYMBOL EIT_Semiconductors\\npn 544 528 M0
SYMATTR InstName Q2
SYMBOL res 208 -96 R90
WINDOW 0 7 56 VBottom 2
WINDOW 3 25 56 VTop 2
SYMATTR InstName R10
SYMATTR Value 100
SYMBOL MDB_sym\\source-Vmarker -208 -336 R0
SYMATTR Value V=12V
SYMATTR InstName U1
SYMBOL bv -336 272 R0
SYMATTR InstName B1
SYMATTR Value V=delay(V(s),{1/(2*f0)})
SYMBOL source-V -672 576 R0
WINDOW 123 0 0 Left 2
WINDOW 39 28 107 Left 2
SYMATTR SpiceLine Rser=2
SYMATTR InstName V2
SYMATTR Value PULSE({Vh} 0 0 1n 1n {0.9/(2*f0)} {1/(f0)})
SYMBOL zener 480 16 R180
WINDOW 0 24 64 Left 2
WINDOW 3 24 0 Left 2
SYMATTR InstName D2
SYMATTR Value 1N750
SYMATTR Description Diode
SYMATTR Type diode
SYMBOL zener 480 -112 R180
WINDOW 0 24 64 Left 2
WINDOW 3 24 0 Left 2
SYMATTR InstName D1
SYMATTR Value 1N750
SYMATTR Description Diode
SYMATTR Type diode
SYMBOL zener -128 -112 R180
WINDOW 0 24 64 Left 2
WINDOW 3 24 0 Left 2
SYMATTR InstName D3
SYMATTR Value 1N750
SYMATTR Description Diode
SYMATTR Type diode
SYMBOL zener -128 16 R180
WINDOW 0 24 64 Left 2
WINDOW 3 24 0 Left 2
SYMATTR InstName D4
SYMATTR Value 1N750
SYMATTR Description Diode
SYMATTR Type diode
SYMBOL res 448 32 R0
SYMATTR InstName R6
SYMATTR Value 1.5k
SYMBOL res 656 -96 R90
WINDOW 0 7 56 VBottom 2
WINDOW 3 25 56 VTop 2
SYMATTR InstName R9
SYMATTR Value 100
SYMBOL res -384 -64 R270
WINDOW 0 25 56 VTop 2
WINDOW 3 7 56 VBottom 2
SYMATTR InstName R11
SYMATTR Value 100
SYMBOL cap 384 80 R0
SYMATTR InstName C1
SYMATTR Value {cd}
SYMBOL cap 416 -304 M0
SYMATTR InstName C3
SYMATTR Value {cd}
SYMBOL cap -80 -304 R0
SYMATTR InstName C4
SYMATTR Value {cd}
SYMBOL cap -80 80 R0
SYMATTR InstName C5
SYMATTR Value {cd}
TEXT -504 808 Left 2 !.tran {10/f0}
TEXT -600 688 Left 2 !.param f0=1k\n+ Vh = 12V\n+ Cd = 500n
