Version 4
SHEET 1 880 680
WIRE -272 128 -304 128
WIRE -112 128 -272 128
WIRE 0 128 -112 128
WIRE 144 128 96 128
WIRE 272 128 144 128
WIRE 400 128 272 128
WIRE 608 128 400 128
WIRE 704 128 608 128
WIRE 720 128 704 128
WIRE 272 144 272 128
WIRE -272 176 -272 128
WIRE -112 240 -112 128
WIRE 16 240 16 176
WIRE 144 240 144 128
WIRE 272 240 272 208
WIRE 400 240 400 208
WIRE -272 320 -272 256
WIRE -224 368 -240 368
WIRE -176 368 -224 368
WIRE -240 432 -240 368
WIRE 144 528 144 496
WIRE -240 576 -240 512
FLAG 144 528 0
FLAG 608 192 0
FLAG 704 128 out
FLAG -272 128 VBatt
FLAG -272 320 0
FLAG -240 576 0
FLAG -224 368 EN
SYMBOL PowerProducts\\LT8672 144 368 R0
SYMATTR InstName U1
SYMBOL cap 256 144 R0
SYMATTR InstName C1
SYMATTR Value 1µ
SYMBOL cap 592 128 R0
SYMATTR InstName C2
SYMATTR Value 470µ
SYMBOL nmos 96 176 M270
SYMATTR InstName M2
SYMATTR Value IPD105N03L
SYMBOL MDB_sym\\source-V -272 160 R0
WINDOW 123 0 0 Left 0
WINDOW 39 0 0 Left 0
SYMATTR InstName V1
SYMATTR Value 12V
SYMBOL ind 384 112 R0
SYMATTR InstName L1
SYMATTR Value 100µ
SYMATTR SpiceLine Rser=1
SYMBOL MDB_sym\\source-V -240 416 R0
WINDOW 123 0 0 Left 0
WINDOW 39 0 0 Left 0
SYMATTR InstName V2
SYMATTR Value PULSE(0 5 0 10n 10n 100m 20m)
TEXT -392 552 Left 2 !.tran 100m
