Version 4
SHEET 1 1156 1268
WIRE 32 -736 -64 -736
WIRE 192 -736 32 -736
WIRE 208 -736 192 -736
WIRE 320 -736 304 -736
WIRE 432 -736 320 -736
WIRE 528 -736 496 -736
WIRE 544 -736 528 -736
WIRE 576 -736 544 -736
WIRE 640 -736 576 -736
WIRE 768 -736 640 -736
WIRE 640 -688 640 -736
WIRE 288 -672 288 -688
WIRE 320 -672 320 -736
WIRE 352 -672 320 -672
WIRE 448 -672 448 -688
WIRE 448 -672 416 -672
WIRE 640 -608 640 -624
WIRE 768 -592 768 -736
WIRE 16 -560 -16 -560
WIRE 288 -560 288 -592
WIRE 288 -560 160 -560
WIRE 448 -560 448 -672
WIRE 448 -560 288 -560
WIRE 192 -496 192 -736
WIRE 320 -496 320 -672
WIRE 448 -496 448 -560
WIRE 576 -496 576 -736
WIRE 768 -448 768 -512
WIRE 768 -432 768 -448
WIRE 768 -304 768 -352
WIRE 384 -192 384 -240
WIRE -64 64 -64 -736
WIRE 112 64 -64 64
WIRE 272 64 112 64
WIRE 304 64 272 64
WIRE 320 64 304 64
WIRE 432 64 416 64
WIRE 480 64 432 64
WIRE 592 64 480 64
WIRE 592 96 592 64
WIRE 272 144 272 64
WIRE 480 144 480 64
WIRE 112 176 112 64
WIRE 368 192 336 192
WIRE 416 192 368 192
WIRE 592 208 592 176
WIRE 592 224 592 208
WIRE 272 256 272 240
WIRE 368 256 368 192
WIRE 368 256 272 256
WIRE 400 256 400 112
WIRE 480 256 480 240
WIRE 480 256 400 256
WIRE 112 352 112 256
WIRE 272 352 272 336
WIRE 480 352 480 336
WIRE 592 352 592 304
FLAG 272 352 0
FLAG 480 352 0
FLAG 432 64 out2.2
FLAG 112 352 0
FLAG 592 352 0
FLAG 592 208 vout_2
FLAG 368 192 B
FLAG 544 -736 out2.1
FLAG 384 -192 0
FLAG -16 -560 0
FLAG 640 -608 0
FLAG 304 64 vin2
FLAG 768 -304 0
FLAG 768 -448 vout_1
FLAG 32 -736 vin2
SYMBOL EIT_Semi\\pnp 416 240 M180
SYMATTR InstName Q2
SYMATTR Value 2N3906
SYMBOL EIT_Semi\\pnp 336 240 R180
SYMATTR InstName Q3
SYMATTR Value 2N3906
SYMBOL EIT_Semi\\pmos 320 112 R270
SYMATTR InstName M1
SYMATTR Value FDS6575
SYMBOL res 464 240 R0
SYMATTR InstName R1
SYMATTR Value 100k
SYMBOL res 256 240 R0
SYMATTR InstName R2
SYMATTR Value 65k
SYMBOL res 576 80 R0
SYMATTR InstName R3
SYMATTR Value 10
SYMBOL MDB_sym\\source-V 112 160 R0
WINDOW 123 0 0 Left 0
WINDOW 39 0 0 Left 0
SYMATTR InstName V1
SYMATTR Value 3.7
SYMBOL MDB_sym\\source-V 592 208 R0
WINDOW 123 0 0 Left 0
WINDOW 39 0 0 Left 0
SYMATTR InstName V2
SYMATTR Value PULSE(-15 15 0 10m 10m 0 20m)
SYMBOL SpecialFunctions\\LTC4359 384 -368 R0
SYMATTR InstName U1
SYMBOL EIT_Semi\\nmos 208 -688 R270
SYMATTR InstName M2
SYMBOL EIT_Semi\\nmos 528 -688 M270
SYMATTR InstName M3
SYMBOL res 272 -688 R0
SYMATTR InstName R4
SYMATTR Value 10
SYMBOL res 176 -576 R90
WINDOW 0 7 56 VBottom 2
WINDOW 3 25 56 VTop 2
SYMATTR InstName R5
SYMATTR Value 10k
SYMBOL cap 80 -576 R90
WINDOW 0 0 32 VBottom 2
WINDOW 3 32 32 VTop 2
SYMATTR InstName C1
SYMATTR Value 10n
SYMBOL zener 352 -656 R270
WINDOW 0 36 32 VTop 2
WINDOW 3 -4 32 VBottom 2
SYMATTR InstName D1
SYMATTR Value KDZ12B
SYMBOL cap 624 -688 R0
SYMATTR InstName C2
SYMATTR Value 47µ
SYMBOL MDB_sym\\source-V 768 -448 R0
WINDOW 123 0 0 Left 0
WINDOW 39 0 0 Left 0
SYMATTR InstName V3
SYMATTR Value PULSE(-15 15 0 10m 10m 0 20m)
SYMBOL res 752 -608 R0
SYMATTR InstName R6
SYMATTR Value 2
TEXT 144 424 Left 2 ;.dc V1 -1 15 .05
TEXT 104 472 Left 2 !.tran 0 60m 20m 0.01 startup
