Version 4
SHEET 1 880 692
WIRE 160 -464 80 -464
WIRE 528 -464 224 -464
WIRE -352 -432 -384 -432
WIRE -304 -432 -352 -432
WIRE -352 -384 -352 -432
WIRE 64 -352 -80 -352
WIRE 112 -352 64 -352
WIRE 384 -352 112 -352
WIRE 528 -352 528 -464
WIRE 528 -352 480 -352
WIRE 576 -352 528 -352
WIRE 640 -352 576 -352
WIRE 688 -352 640 -352
WIRE 576 -320 576 -352
WIRE -80 -304 -80 -352
WIRE 688 -304 688 -352
WIRE -496 -256 -528 -256
WIRE -448 -256 -496 -256
WIRE -352 -240 -352 -304
WIRE 64 -224 64 -352
WIRE 112 -224 64 -224
WIRE 528 -224 528 -352
WIRE 528 -224 368 -224
WIRE 576 -224 576 -256
WIRE -496 -208 -496 -256
WIRE -80 -192 -80 -240
WIRE 688 -192 688 -224
WIRE 464 -144 464 -304
WIRE 464 -144 368 -144
WIRE -496 -64 -496 -128
WIRE 528 -64 528 -80
WIRE 528 -64 368 -64
WIRE 560 -64 528 -64
WIRE -448 -16 -464 -16
WIRE -400 -16 -448 -16
WIRE -464 48 -464 -16
WIRE -464 192 -464 128
FLAG -496 -256 V1
FLAG -496 -64 0
FLAG -464 192 0
FLAG -448 -16 EN
FLAG -352 -240 0
FLAG -352 -432 V2
FLAG 688 -192 0
FLAG -80 -192 0
FLAG 112 -144 0
FLAG 112 -64 0
FLAG 576 -224 0
FLAG 640 -352 out
FLAG 80 -464 V1
FLAG 112 -352 Vbat
FLAG 528 -160 Vbat
FLAG 560 -64 stat
SYMBOL MDB_sym\\source-V -496 -224 R0
WINDOW 123 0 0 Left 0
WINDOW 39 28 54 Left 2
SYMATTR InstName V1
SYMATTR Value PULSE(0 7 50m 10m 0 1)
SYMBOL MDB_sym\\source-V -464 32 R0
WINDOW 123 0 0 Left 0
WINDOW 39 28 107 Left 2
SYMATTR InstName V2
SYMATTR Value PULSE(0 12 0 10n 10n 100m 20m)
SYMATTR SpiceLine Rser=10m
SYMBOL MDB_sym\\source-V -352 -400 R0
WINDOW 123 0 0 Left 0
WINDOW 39 28 54 Left 2
SYMATTR InstName V3
SYMATTR Value 12V
SYMATTR SpiceLine Rser=10m
SYMBOL res 672 -320 R0
SYMATTR InstName RL1
SYMATTR Value 2
SYMBOL PowerProducts\\LTC4412 240 -144 R0
SYMATTR InstName U1
SYMBOL pmos 384 -304 R270
SYMATTR InstName M5
SYMATTR Value FDS4435A
SYMBOL Misc\\cell -80 -304 R0
WINDOW 123 0 0 Left 0
WINDOW 39 24 34 Left 2
SYMATTR InstName V4
SYMATTR Value 4V
SYMATTR SpiceLine Rser=0.1
SYMBOL cap 560 -320 R0
SYMATTR InstName C3
SYMATTR Value 47µ
SYMBOL schottky 160 -448 R270
WINDOW 0 32 32 VTop 2
WINDOW 3 0 32 VBottom 2
SYMATTR InstName D2
SYMATTR Value PDS5100
SYMBOL res 512 -176 R0
SYMATTR InstName R1
SYMATTR Value 100k
TEXT -522 -346 Left 2 !.tran 200m
