Version 4
SHEET 1 880 1180
WIRE 416 -464 384 -464
WIRE 384 -432 384 -464
WIRE -320 -400 -336 -400
WIRE -240 -400 -272 -400
WIRE -464 -352 -592 -352
WIRE -368 -352 -464 -352
WIRE -336 -352 -368 -352
WIRE -320 -352 -336 -352
WIRE -240 -352 -240 -400
WIRE -176 -352 -176 -368
WIRE -176 -352 -240 -352
WIRE -160 -352 -176 -352
WIRE -464 -336 -464 -352
WIRE 16 -336 0 -336
WIRE 112 -336 64 -336
WIRE -160 -320 -160 -352
WIRE 384 -320 384 -352
WIRE -592 -304 -592 -352
WIRE -432 -304 -464 -304
WIRE 0 -288 -16 -288
WIRE 112 -288 112 -336
WIRE 112 -288 96 -288
WIRE -112 -272 -112 -368
WIRE -464 -256 -464 -272
WIRE 384 -240 352 -240
WIRE 352 -208 352 -240
WIRE -592 -192 -592 -224
WIRE -368 -192 -400 -192
WIRE -336 -192 -368 -192
WIRE -320 -192 -336 -192
WIRE -160 -192 -160 -224
WIRE -160 -192 -240 -192
WIRE -48 -192 -160 -192
WIRE -16 -192 -16 -288
WIRE -16 -192 -48 -192
WIRE 16 -192 -16 -192
WIRE -592 -176 -592 -192
WIRE 112 -176 112 -288
WIRE 112 -176 80 -176
WIRE 144 -176 112 -176
WIRE 176 -176 144 -176
WIRE -160 -160 -160 -192
WIRE 16 -160 -16 -160
WIRE 144 -160 144 -176
WIRE -320 -144 -352 -144
WIRE -240 -144 -240 -192
WIRE -240 -144 -272 -144
WIRE 176 -128 144 -128
WIRE 192 -128 176 -128
WIRE -48 -112 -64 -112
WIRE -16 -112 -16 -160
WIRE -16 -112 -48 -112
WIRE -16 -96 -16 -112
WIRE 352 -96 352 -128
WIRE -192 -80 -224 -80
WIRE 144 -80 144 -96
WIRE 16 -64 -16 -64
WIRE 32 -64 16 -64
WIRE 384 -32 352 -32
WIRE -160 -16 -160 -48
WIRE -16 -16 -16 -32
WIRE 352 0 352 -32
WIRE 160 32 128 32
WIRE 128 64 128 32
WIRE 352 112 352 80
WIRE 128 176 128 144
FLAG 144 -176 out
FLAG -48 -192 S
FLAG -16 -16 0
FLAG -48 -112 bg
FLAG 144 -80 0
FLAG -160 -16 0
FLAG 128 176 0
FLAG -368 -352 Vx
FLAG -368 -192 V2
FLAG -464 -256 0
FLAG -592 -192 0
FLAG -400 -192 0
FLAG 352 112 0
FLAG 352 -96 0
FLAG 384 -320 0
DATAFLAG 16 -64 "round(1k*$)*1m"
DATAFLAG 64 -224 "round(1e6*I(Ir1))/1e6"
DATAFLAG -352 -144 "round(1e3*$)/1e3"
DATAFLAG -336 -400 "round(1e3*$)/1e3"
DATAFLAG 176 -128 "round(1k*$)*1m"
DATAFLAG 0 -336 "round(1e3*$)/1e3"
DATAFLAG -224 -80 "round(1k*$)*1m"
DATAFLAG 160 32 "round(1k*$)*1m"
DATAFLAG -432 -304 "round(1k*$)*1m"
DATAFLAG 384 -32 "round(1k*$)*1m"
DATAFLAG 384 -240 "round(1k*$)*1m"
DATAFLAG 416 -464 "round(1k*$)*1m"
SYMBOL res -16 -304 M90
WINDOW 0 7 56 Invisible 2
WINDOW 3 25 56 VTop 2
SYMATTR InstName R1
SYMATTR Value {R2}
SYMBOL EIT_Semiconductors\\op_3 48 -176 R0
WINDOW 0 -2 29 Left 2
WINDOW 123 -17 69 Invisible 2
WINDOW 3 -16 43 Invisible 2
SYMATTR InstName U1
SYMATTR Value Vp=20 Vm=-20 Ilim=200m
SYMBOL MDB_sym\\source-Vmarker -64 -112 R0
SYMATTR Value V={bg}
SYMATTR InstName U2
SYMBOL MDB_sym\\VacrossAB -16 -64 R0
SYMATTR InstName U3
SYMBOL res -336 -368 M90
WINDOW 0 7 56 Invisible 2
WINDOW 3 25 56 VTop 2
SYMATTR InstName R2
SYMATTR Value {Rx}
SYMBOL res -336 -208 M90
WINDOW 0 7 56 Invisible 2
WINDOW 3 25 56 VTop 2
SYMATTR InstName R3
SYMATTR Value {R1}
SYMBOL MDB_sym\\source-Vmarker -176 -640 R0
SYMATTR Value V={V1}
SYMATTR InstName U5
SYMBOL MDB_sym\\arrow_curr 96 -288 R270
WINDOW 0 4 0 Invisible 2
SYMATTR InstName IR1
SYMBOL MDB_sym\\Vbe -288 -144 R0
SYMATTR InstName U6
SYMBOL MDB_sym\\Vbe -288 -400 M180
SYMATTR InstName U7
SYMBOL MDB_sym\\VacrossAB 144 -128 R0
SYMATTR InstName U8
SYMBOL MDB_sym\\Vbe 48 -336 M180
SYMATTR InstName U9
SYMBOL MDB_sym\\Vacross -192 -64 R0
SYMATTR InstName U10
SYMBOL MDB_sym\\VacrossAB -464 -304 R0
SYMATTR InstName U14
SYMBOL MDB_sym\\source-V -592 -320 R0
WINDOW 3 28 54 Left 2
WINDOW 123 28 80 Left 2
WINDOW 39 0 0 Left 2
SYMATTR InstName V1
SYMATTR Value {V1}
SYMATTR Value2 AC 1
SYMBOL MDB_sym\\swMDBCirc -160 -272 R90
SYMATTR InstName U4
SYMBOL MDB_sym\\source-Vmarker -112 -368 R90
SYMATTR Value V={fbinj}
SYMATTR InstName U21
SYMBOL bv 352 -224 R0
WINDOW 3 -167 173 Left 2
SYMATTR InstName B4
SYMATTR Value V=V(bg)*(R2/R1+R2/Rx+1)-R2/Rx*V(Vx)
SYMBOL bv 384 -448 R0
WINDOW 3 -167 173 Left 2
SYMATTR InstName B1
SYMATTR Value V=V(bg)*(R2/R1+1)-R2/Rx*(V(Vx)-V(bg))
TEXT -288 120 Left 2 !.param test=1\n+ bg= .6V\n+ V1 = 1V\n+ V2 = 0V\n+ R2 = 20k5\n+ Rx = {R2}\n+ R1 = {1k6+160}\n+ out = -0.75V
TEXT -276 88 Left 2 ;.tran 5m
TEXT -608 208 Left 2 ;.param calc=1\n+ R1 = {Rx}\n+ R1pRF = {R1*Rf/(R1+Rf)}\n+ R2pRF = {R2*Rf/(R2+Rf)}\n+ R1pR2 = {R1*R2/(R1+R2)}\n+ Sa = {R2pRf/(R2pRf+R1) * V1}\n+ Sb = {R1pRf/(R1pRf+R2) * V2}\n+ Sc = {R1pR2/(R1pR2+Rf) * out}
TEXT -600 -48 Left 2 !.step param V1 0 1 0.05
TEXT -488 32 Left 2 !.op
TEXT -624 -536 Left 2 ;.step param Rshort list 100meg 1u
TEXT 8 -416 Left 2 !.step param Rx 10k 25k 5k
TEXT -96 -520 Left 2 !.param fbinj=1
TEXT -56 -472 Left 2 !.step param fbinj list -1 1
TEXT -96 248 Left 2 ;V=-( (V(V1)-V(ref))/Rx+(V(V2)-V(ref))/R2)*Rf+V(ref)
