Version 4
SHEET 1 880 1096
WIRE 32 416 -16 416
WIRE 160 416 112 416
WIRE 272 416 160 416
WIRE 272 464 272 416
WIRE -144 656 -224 656
WIRE -96 656 -144 656
WIRE 32 656 16 656
WIRE 160 656 160 416
WIRE 160 656 144 656
WIRE 272 656 272 544
WIRE -224 688 -224 656
WIRE -144 704 -144 656
WIRE -224 800 -224 752
WIRE -96 816 -128 816
WIRE 32 816 16 816
WIRE 208 816 192 816
WIRE -144 896 -144 768
WIRE 16 896 16 816
WIRE 16 896 -144 896
WIRE -96 944 -96 816
WIRE 192 944 192 816
WIRE 192 944 -96 944
FLAG -96 416 0
FLAG -224 800 0
FLAG -96 816 8
FLAG 32 816 9
FLAG 80 816 10
FLAG 192 816 11
FLAG 272 816 12
FLAG 384 816 13
SYMBOL Hef4000\\HEF4069UB 544 432 R0
SYMATTR InstName U1
SYMBOL Hef4000\\HEF4069UB 224 592 M0
SYMATTR InstName U2
SYMBOL res -112 432 R270
WINDOW 0 25 56 VTop 2
WINDOW 3 0 61 VBottom 2
SYMATTR InstName R1
SYMATTR Value {Rpot*(1-p)}
SYMBOL res 16 432 R270
WINDOW 0 25 56 VTop 2
WINDOW 3 7 56 VBottom 2
SYMATTR InstName R2
SYMATTR Value {Rpot*p}
SYMBOL res 256 448 R0
SYMATTR InstName R3
SYMBOL Hef4000\\HEF4069UB 96 592 M0
SYMATTR InstName U3
SYMBOL Hef4000\\HEF4069UB -32 592 M0
SYMATTR InstName U4
SYMBOL cap -240 688 R0
SYMATTR InstName C1
SYMBOL diode -128 768 R180
WINDOW 0 24 64 Left 2
WINDOW 3 24 0 Left 2
SYMATTR InstName D1
SYMBOL Hef4000\\HEF4069UB -32 752 M0
SYMATTR InstName U5
SYMBOL Hef4000\\HEF4069UB 144 752 M0
SYMATTR InstName U6
SYMBOL Hef4000\\HEF4069UB 336 752 M0
SYMATTR InstName U7
SYMBOL res 0 992 R0
SYMATTR InstName R4
TEXT -40 56 Left 2 ;http://www.wolfgang-wessely.de/gtb/elektronik/pdf/NASE.PDF
