Version 4
SHEET 1 880 680
WIRE 304 -32 160 -32
WIRE 304 -16 304 -32
WIRE 304 80 304 64
WIRE 304 96 304 80
WIRE 48 144 32 144
WIRE 208 144 128 144
WIRE 240 144 208 144
WIRE 304 240 304 192
WIRE 144 384 128 384
WIRE 288 384 224 384
WIRE 288 432 288 384
WIRE 288 528 288 512
FLAG 304 240 0
FLAG 304 80 c
FLAG 208 144 b
FLAG 32 144 0
FLAG 128 384 0
FLAG 288 528 0
SYMBOL MDB_sym\\source-Vmarker 160 -32 R0
SYMATTR InstName U2
SYMBOL res 288 -32 R0
SYMATTR InstName R1
SYMATTR Value 1k
SYMBOL EIT_Semiconductors\\npn 240 96 R0
SYMATTR InstName Q1
SYMATTR Value NPNx
SYMBOL MDB_sym\\source-I 128 144 R90
WINDOW 0 -27 40 VBottom 2
WINDOW 3 27 40 VTop 2
WINDOW 123 0 0 Left 2
WINDOW 39 0 0 Left 2
SYMATTR InstName I1
SYMATTR Value {Ib}
SYMBOL bi 144 384 R270
WINDOW 0 32 40 VTop 2
WINDOW 3 35 321 VBottom 2
SYMATTR InstName B1
SYMATTR Value I={ Is/Bf*exp(Vbe0/VT)*(1+( V(b) -Vbe0)/VT) }
SYMBOL res 272 416 R0
SYMATTR InstName R2
SYMATTR Value 1
TEXT -280 264 Left 2 !.model NPNx npn ( Is={Is} Bf={Bf} )
TEXT -256 -56 Left 2 !.param Ib=10u\n+ Ic0 = 3mA\n+ Vbe0 = 0.6\n+ VT = 26mV\n+ Is = Ic0/exp(Vbe0/VT)\n+ Bf = 200
TEXT -248 168 Left 2 !.step param Ib 0 100u .5u
TEXT -240 200 Left 2 !.op
