Version 4
SHEET 1 1424 872
WIRE 32 -272 -112 -272
WIRE 144 -272 32 -272
WIRE 560 -272 144 -272
WIRE 672 -272 560 -272
WIRE -112 -208 -112 -272
WIRE 32 -160 32 -272
WIRE 672 -160 672 -272
WIRE -112 -96 -112 -128
WIRE 144 -64 144 -272
WIRE 560 -64 560 -272
WIRE 32 -48 32 -80
WIRE 32 -48 16 -48
WIRE 96 -48 32 -48
WIRE 672 -48 672 -80
WIRE 672 -48 608 -48
WIRE 688 -48 672 -48
WIRE 144 64 144 32
WIRE 256 64 144 64
WIRE 368 64 336 64
WIRE 560 64 560 32
WIRE 560 64 448 64
WIRE 144 80 144 64
WIRE 560 80 560 64
WIRE 32 160 32 -48
WIRE 64 160 32 160
WIRE 96 160 64 160
WIRE 640 160 608 160
WIRE 672 160 672 -48
WIRE 672 160 640 160
WIRE 32 224 32 160
WIRE 672 224 672 160
WIRE 32 352 32 304
WIRE 672 352 672 304
WIRE -512 400 -512 336
WIRE -208 400 -320 400
WIRE -192 400 -208 400
WIRE -80 400 -128 400
WIRE -32 400 -80 400
WIRE 784 400 736 400
WIRE 832 400 784 400
WIRE 1024 400 912 400
WIRE -80 448 -80 400
WIRE 784 448 784 400
WIRE -512 496 -512 480
WIRE -80 544 -80 528
WIRE 32 544 32 448
WIRE 144 544 144 176
WIRE 560 544 560 176
WIRE 672 544 672 448
WIRE 784 544 784 528
WIRE 32 560 32 544
WIRE 672 560 672 544
WIRE 1024 560 1024 400
WIRE 1024 688 1024 640
WIRE 944 704 480 704
WIRE -320 736 -320 400
WIRE 480 736 480 704
WIRE 944 816 944 752
WIRE -320 832 -320 816
WIRE 480 832 480 816
WIRE 1024 832 1024 768
FLAG -80 544 0
FLAG 32 544 0
FLAG 144 544 0
FLAG -512 496 0
FLAG -112 -96 0
FLAG 144 64 out
FLAG 784 544 0
FLAG 672 544 0
FLAG 560 544 0
FLAG 560 64 out
FLAG 1040 832 0
FLAG 1024 832 0
FLAG -320 832 0
FLAG 944 816 0
FLAG 64 160 G12
FLAG 640 160 G34
FLAG 480 832 0
SYMBOL EIT_Semiconductors\\nmos 96 80 R0
SYMATTR InstName M1
SYMATTR Value NMOSx
SYMBOL EIT_Semiconductors\\pmos 96 32 M180
SYMATTR InstName M2
SYMBOL res 16 -176 R0
SYMATTR InstName R1
SYMATTR Value 6.8kR
SYMBOL res 16 208 R0
SYMATTR InstName R2
SYMATTR Value 100
SYMBOL EIT_Semiconductors\\npn -32 352 R0
SYMATTR InstName Q1
SYMBOL res -112 384 R90
WINDOW 0 7 56 VBottom 0
WINDOW 3 25 56 VTop 0
SYMATTR InstName R3
SYMATTR Value 4.7k
SYMBOL res -64 544 R180
WINDOW 0 36 76 Left 0
WINDOW 3 36 40 Left 0
SYMATTR InstName R4
SYMATTR Value 68k
SYMBOL source-V -112 -224 R0
WINDOW 123 0 0 Left 0
WINDOW 39 0 0 Left 0
SYMATTR InstName V1
SYMATTR Value 14
SYMBOL source-V -512 384 R0
WINDOW 3 28 56 Left 0
WINDOW 123 0 0 Left 0
WINDOW 39 0 0 Left 0
SYMATTR InstName V2
SYMATTR Value 1
SYMBOL res 352 48 R90
WINDOW 0 7 56 VBottom 0
WINDOW 3 25 56 VTop 0
SYMATTR InstName R5
SYMATTR Value 5
SYMBOL ind 464 48 R90
WINDOW 0 6 56 VBottom 0
WINDOW 3 30 56 VTop 0
SYMATTR InstName L1
SYMATTR Value 10m
SYMBOL EIT_Semiconductors\\nmos 608 80 M0
SYMATTR InstName M3
SYMATTR Value NMOSx
SYMBOL EIT_Semiconductors\\pmos 608 32 R180
SYMATTR InstName M4
SYMBOL res 688 -176 M0
SYMATTR InstName R6
SYMATTR Value 6.8kR
SYMBOL res 688 208 M0
SYMATTR InstName R7
SYMATTR Value 100
SYMBOL EIT_Semiconductors\\npn 736 352 M0
SYMATTR InstName Q2
SYMBOL res 816 384 M90
WINDOW 0 7 56 VBottom 0
WINDOW 3 25 56 VTop 0
SYMATTR InstName R8
SYMATTR Value 4.7k
SYMBOL res 768 544 M180
WINDOW 0 36 76 Left 0
WINDOW 3 36 40 Left 0
SYMATTR InstName R9
SYMATTR Value 68k
SYMBOL source-V 1024 544 R0
WINDOW 123 0 0 Left 0
WINDOW 39 0 0 Left 0
SYMATTR InstName V3
SYMATTR Value 0
SYMBOL source-V -320 720 R0
WINDOW 3 28 56 Left 0
WINDOW 123 0 0 Left 0
WINDOW 39 0 0 Left 0
SYMATTR InstName V4
SYMATTR Value PULSE(0 5 0 10u 10u 1m 2m)
SYMBOL crtl-V-V 1024 672 R0
SYMATTR InstName E1
SYMATTR Value 1
SYMBOL source-V 480 720 R0
WINDOW 3 28 56 Left 0
WINDOW 123 0 0 Left 0
WINDOW 39 0 0 Left 0
SYMATTR InstName V5
SYMATTR Value PULSE(5 0 200u 10u 10u {2m-0.8m} 2m)
TEXT -540 856 Left 0 !.tran 0 4m 0 250n
TEXT -64 -352 Left 0 !.model nmosx NMOS(Kp=13.8 VT0=1)
