Version 4
SHEET 1 2060 680
WIRE -832 -304 -1088 -304
WIRE -224 -304 -768 -304
WIRE 192 -256 32 -256
WIRE 368 -256 192 -256
WIRE 624 -256 368 -256
WIRE 192 -240 192 -256
WIRE -624 -192 -912 -192
WIRE -560 -192 -624 -192
WIRE -432 -192 -480 -192
WIRE -176 -192 -432 -192
WIRE 368 -192 368 -256
WIRE -912 -176 -912 -192
WIRE -176 -176 -176 -192
WIRE 624 -176 624 -256
WIRE 32 -128 32 -176
WIRE 192 -128 192 -176
WIRE 224 -128 192 -128
WIRE -624 -96 -624 -192
WIRE -432 -96 -432 -192
WIRE 368 -96 368 -112
WIRE 448 -96 368 -96
WIRE 576 -96 528 -96
WIRE -1088 -32 -1088 -304
WIRE -912 -32 -912 -96
WIRE -912 -32 -1088 -32
WIRE -752 -32 -912 -32
WIRE -224 -32 -224 -304
WIRE -224 -32 -304 -32
WIRE -176 -32 -176 -112
WIRE -176 -32 -224 -32
WIRE -1088 32 -1088 -32
WIRE -912 32 -912 -32
WIRE -752 32 -912 32
WIRE -272 32 -304 32
WIRE -128 32 -272 32
WIRE 1232 48 1184 48
WIRE 1344 48 1296 48
WIRE 1488 48 1344 48
WIRE 1648 48 1600 48
WIRE 1840 48 1728 48
WIRE -912 64 -912 32
WIRE -176 64 -176 -32
WIRE 624 80 624 -80
WIRE -272 96 -272 32
WIRE -272 96 -304 96
WIRE 1184 96 1184 48
WIRE 1488 96 1488 48
WIRE 1344 112 1344 48
WIRE 1840 112 1840 48
WIRE -176 160 -176 128
WIRE -176 160 -304 160
WIRE 1712 160 1712 96
WIRE -1088 176 -1088 112
WIRE -912 176 -912 128
WIRE 1840 208 1840 192
WIRE -752 224 -1088 224
WIRE -272 224 -304 224
WIRE 624 224 624 160
WIRE 1184 240 1184 176
WIRE 1248 240 1184 240
WIRE 1344 240 1344 176
WIRE 1344 240 1248 240
WIRE 1488 240 1488 176
WIRE 1488 240 1344 240
WIRE -1088 288 -1088 224
WIRE -752 288 -912 288
WIRE -272 288 -272 224
WIRE -272 288 -304 288
WIRE 1184 288 1184 240
WIRE -912 304 -912 288
WIRE 624 320 624 304
WIRE -672 384 -672 352
WIRE -528 384 -528 352
WIRE -384 384 -384 352
FLAG -384 384 0
FLAG -1088 176 0
FLAG -912 176 0
FLAG -672 384 0
FLAG -528 384 0
FLAG 192 -128 0
FLAG -1088 368 0
FLAG -912 384 0
FLAG 32 -128 0
FLAG 1248 240 0
FLAG 1840 208 0
FLAG 1712 240 0
FLAG 1664 96 0
FLAG 624 320 0
SYMBOL PowerProducts\\LT1336 -528 128 R0
SYMATTR InstName U1
SYMBOL voltage -1088 16 R0
WINDOW 123 0 0 Left 2
WINDOW 39 24 124 Left 2
SYMATTR SpiceLine Rser=5m
SYMATTR InstName V1
SYMATTR Value 12V
SYMBOL res -928 -192 R0
SYMATTR InstName R1
SYMATTR Value 2
SYMBOL cap -928 64 R0
SYMATTR InstName C1
SYMATTR Value 10
SYMBOL cap -192 64 R0
SYMATTR InstName C2
SYMATTR Value 100
SYMBOL cap 176 -240 R0
SYMATTR InstName C3
SYMATTR Value 10000
SYMATTR SpiceLine Rser=10m
SYMBOL ind -464 -208 R90
WINDOW 0 5 56 VBottom 2
WINDOW 3 32 56 VTop 2
SYMATTR InstName L1
SYMATTR Value 200
SYMBOL diode -832 -320 M90
WINDOW 0 0 32 VBottom 2
WINDOW 3 32 32 VTop 2
SYMATTR InstName D1
SYMATTR Value 1N4148
SYMBOL diode -192 -176 R0
SYMATTR InstName D2
SYMATTR Value 1N4148
SYMBOL nmos 576 -176 R0
SYMATTR InstName M2
SYMATTR Value IRFH5300
SYMBOL voltage -1088 272 R0
WINDOW 3 -410 60 Left 2
WINDOW 123 0 0 Left 2
WINDOW 39 0 0 Left 2
SYMATTR Value PULSE(0 5 60u 20n 20n 100u 200u)
SYMATTR InstName V2
SYMBOL voltage -912 288 R0
WINDOW 3 -65 144 Left 2
WINDOW 123 0 0 Left 2
WINDOW 39 0 0 Left 2
SYMATTR Value PULSE(5 0 0 250n 250n 50u 200u)
SYMATTR InstName V3
SYMBOL voltage 32 -272 R0
WINDOW 123 0 0 Left 2
WINDOW 39 24 44 Left 2
SYMATTR SpiceLine Rser=0.01m
SYMATTR InstName V4
SYMATTR Value 12V
SYMBOL ind2 1200 192 R180
WINDOW 0 36 80 Left 2
WINDOW 3 36 40 Left 2
SYMATTR InstName L3
SYMATTR Value 1.05m
SYMATTR Type ind
SYMATTR SpiceLine Rser=4m
SYMBOL res 1472 80 R0
SYMATTR InstName R2
SYMATTR Value 500
SYMBOL res 432 -112 M90
WINDOW 0 0 56 VBottom 2
WINDOW 3 32 56 VTop 2
SYMATTR InstName R5
SYMATTR Value .5
SYMBOL ind2 640 176 R180
WINDOW 0 36 80 Left 2
WINDOW 3 36 40 Left 2
SYMATTR InstName L2
SYMATTR Value 65
SYMATTR Type ind
SYMATTR SpiceLine Rser=2m
SYMBOL diode 1232 32 M90
WINDOW 0 0 32 VBottom 2
WINDOW 3 32 32 VTop 2
SYMATTR InstName D3
SYMATTR Value MUR460
SYMBOL cap 1328 112 R0
SYMATTR InstName C4
SYMATTR Value 110
SYMBOL voltage 368 -208 R0
WINDOW 3 -223 174 Left 2
WINDOW 123 0 0 Left 2
WINDOW 39 0 0 Left 2
SYMATTR Value PULSE(0 12 60u 70n 70n 9u 10u)
SYMATTR InstName V5
SYMBOL sw 1632 48 R270
SYMATTR InstName S1
SYMBOL voltage 1840 96 R0
WINDOW 123 0 0 Left 2
WINDOW 39 24 44 Left 2
SYMATTR InstName V6
SYMATTR Value 10V
SYMBOL voltage 1712 144 R0
WINDOW 3 -167 139 Left 2
WINDOW 123 0 0 Left 2
WINDOW 39 0 0 Left 2
SYMATTR Value PULSE(0 1 0 70n 70n 10u 10)
SYMATTR InstName V7
SYMBOL res 608 208 R0
SYMATTR InstName R4
SYMATTR Value 1
TEXT -1120 424 Left 2 !.tran 5m
TEXT 1040 -80 Left 2 !K L2 L3 .9972
TEXT 1416 -48 Left 2 !.model SW SW(Ron=1m Roff=10Meg Vt=.5 Vh=-.4)
