Version 4
SHEET 1 1356 1860
WIRE 80 -304 64 -304
WIRE 96 -304 80 -304
WIRE 400 -304 336 -304
WIRE -32 -272 -32 -304
WIRE 64 -272 64 -304
WIRE 336 -272 336 -304
WIRE -160 -256 -224 -256
WIRE -32 -176 -32 -192
WIRE 64 -176 64 -192
WIRE 336 -176 336 -192
WIRE -352 -48 -400 -48
WIRE -400 -32 -400 -48
WIRE 128 0 80 0
WIRE 608 0 560 0
WIRE -576 48 -624 48
WIRE -544 48 -576 48
WIRE -400 48 -400 0
WIRE -400 48 -464 48
WIRE 80 48 80 0
WIRE 560 48 560 0
WIRE -464 64 -464 48
WIRE -400 64 -400 48
WIRE -544 80 -544 48
WIRE 32 128 -16 128
WIRE 512 128 464 128
WIRE -16 144 -16 128
WIRE 464 144 464 128
WIRE -544 160 -544 128
WIRE -464 160 -464 144
WIRE -464 160 -544 160
WIRE -448 160 -464 160
WIRE -400 160 -400 144
WIRE -400 160 -448 160
WIRE 384 160 368 160
WIRE -464 208 -464 160
WIRE 80 224 80 144
WIRE 384 224 384 208
WIRE 560 224 560 144
WIRE -464 288 -464 256
WIRE -416 448 -464 448
WIRE -464 464 -464 448
WIRE -32 496 -48 496
WIRE 128 496 -32 496
WIRE 448 496 432 496
WIRE 608 496 448 496
WIRE -464 544 -464 496
WIRE -464 544 -528 544
WIRE -448 544 -464 544
WIRE -384 544 -448 544
WIRE -528 560 -528 544
WIRE -464 560 -464 544
WIRE 128 560 128 496
WIRE 608 560 608 496
WIRE -384 576 -384 544
WIRE -32 576 -32 496
WIRE 64 576 48 576
WIRE 80 576 64 576
WIRE 448 576 448 496
WIRE 560 576 528 576
WIRE -528 656 -528 640
WIRE -464 656 -464 640
WIRE -464 656 -528 656
WIRE -384 656 -384 624
WIRE -352 656 -384 656
WIRE -304 656 -352 656
WIRE 464 672 464 656
WIRE 512 672 512 656
WIRE 128 688 128 656
WIRE 608 688 608 656
WIRE -464 704 -464 656
WIRE -464 784 -464 752
WIRE 544 944 384 944
WIRE 384 976 384 944
WIRE 64 1008 -96 1008
WIRE 544 1040 544 944
WIRE 64 1072 64 1008
WIRE 384 1072 384 1056
WIRE 496 1072 464 1072
WIRE -96 1104 -96 1008
WIRE 16 1104 -16 1104
WIRE 400 1168 400 1152
WIRE 448 1168 448 1152
WIRE 544 1168 544 1136
WIRE 64 1200 64 1168
WIRE 672 1312 656 1312
WIRE 64 1456 32 1456
WIRE 64 1488 64 1456
WIRE 16 1552 -16 1552
WIRE -16 1568 -16 1552
WIRE 64 1648 64 1584
FLAG -16 224 0
FLAG 80 224 0
FLAG -16 1648 0
FLAG 64 1648 0
FLAG 128 688 0
FLAG 64 -176 0
FLAG 80 -304 co
FLAG -32 -176 0
FLAG 64 1200 0
FLAG -464 288 0
FLAG -16 128 G1
FLAG -576 48 G1
FLAG -448 160 S1
FLAG 64 576 G2
FLAG -464 784 0
FLAG -352 656 G2
FLAG -448 544 Vpl
FLAG -352 -48 +5V
IOPIN -352 -48 In
FLAG -160 -256 +5V
IOPIN -160 -256 In
FLAG 128 0 +5V
IOPIN 128 0 In
FLAG -416 448 +5V
IOPIN -416 448 In
FLAG -48 496 +5V
IOPIN -48 496 In
FLAG 464 224 0
FLAG 560 224 0
FLAG 608 688 0
FLAG 544 1168 0
FLAG 608 0 +5V
IOPIN 608 0 In
FLAG 432 496 +5V
IOPIN 432 496 In
FLAG 512 672 0
FLAG 464 672 Vctrl
IOPIN 464 672 In
FLAG 384 224 0
FLAG 368 160 Vctrl
IOPIN 368 160 In
FLAG 400 1168 0
FLAG 448 1168 Vctrl
IOPIN 448 1168 In
FLAG 336 -176 0
FLAG 400 -304 Vctrl
IOPIN 400 -304 In
FLAG 672 1312 0
SYMBOL EIT_Semiconductors\\nmos 32 48 R0
SYMATTR InstName Q1
SYMATTR Value Nx
SYMBOL source-V -16 128 R0
WINDOW 3 -157 169 Left 2
WINDOW 123 0 0 Left 2
WINDOW 39 0 0 Left 2
SYMATTR Value PULSE(0 4 0 100m)
SYMATTR InstName V1
SYMBOL EIT_Semiconductors\\njf 16 1488 R0
SYMATTR InstName Q2
SYMATTR Value NJFx
SYMBOL source-V -16 1552 R0
WINDOW 3 -99 161 Left 2
SYMATTR Value PULSE(-3 .3 0 100m)
SYMATTR InstName V2
SYMBOL source-Vmarker 32 1456 R0
SYMATTR InstName U1
SYMBOL source-V 64 576 R90
WINDOW 0 -27 56 VBottom 2
WINDOW 3 212 148 VTop 2
SYMATTR InstName V3
SYMATTR Value PULSE(-4 0 0 100m)
SYMBOL EIT_Semiconductors\\pmos 80 656 M180
SYMATTR InstName Q3
SYMATTR Value Px
SYMBOL source-V 64 -288 R0
WINDOW 123 0 0 Left 2
WINDOW 39 0 0 Left 2
SYMATTR InstName V4
SYMATTR Value PULSE(-4 4 0 100m)
SYMBOL source-V -32 -288 R0
WINDOW 3 -36 142 Left 2
WINDOW 123 0 0 Left 2
WINDOW 39 0 0 Left 2
SYMATTR Value SINE(0 1 1k)
SYMATTR InstName V5
SYMBOL EIT_Semiconductors\\pjf 16 1168 M180
SYMATTR InstName Q4
SYMBOL source-Vmarker -96 1008 R0
SYMATTR InstName U2
SYMBOL source-V 0 1104 R90
WINDOW 0 -27 56 VBottom 2
WINDOW 3 117 60 VTop 2
SYMATTR InstName V6
SYMATTR Value PULSE(-.5 4 0 100m)
SYMBOL bi -464 64 M0
WINDOW 3 -175 254 Left 2
SYMATTR Value I=K*(V(G1,S1)-Vp)**2*buf(V(G1)-Vp+.5)
SYMATTR InstName B1
SYMBOL res -416 48 R0
SYMATTR InstName R1
SYMATTR Value {r0}
SYMBOL MDB_sym\\arrow_curr -400 -16 R0
SYMATTR InstName R2
SYMBOL bi -464 560 R0
WINDOW 3 -170 276 Left 2
SYMATTR Value I=K*(V(G2,Vpl)+Vp)**2*inv(V(G2,Vpl)+Vp+.5)
SYMATTR InstName B2
SYMBOL res -512 656 R180
WINDOW 0 36 76 Left 2
WINDOW 3 36 40 Left 2
SYMATTR InstName R3
SYMATTR Value {r0}
SYMBOL source-Vmarker -224 -256 R0
SYMATTR InstName U3
SYMBOL MDB_sym\\arrow_curr -464 480 R0
SYMATTR InstName R4
SYMBOL MDB_sym\\jumper -400 736 R90
SYMATTR InstName J1
SYMBOL MDB_sym\\jumper -400 240 R90
SYMATTR InstName J2
SYMBOL EIT_Semiconductors\\nmos 512 48 R0
SYMATTR InstName Q5
SYMATTR Value Nx
SYMBOL EIT_Semiconductors\\pmos 560 656 M180
SYMATTR InstName Q7
SYMATTR Value Px
SYMBOL EIT_Semiconductors\\pjf 496 1136 M180
SYMATTR InstName Q8
SYMBOL source-Vmarker 384 944 R0
WINDOW 3 -18 0 Right 2
SYMATTR InstName U5
SYMBOL crtl-V-V 432 576 R270
WINDOW 0 -17 112 VLeft 2
WINDOW 3 43 61 VLeft 2
SYMATTR InstName E1
SYMATTR Value 1
SYMBOL crtl-V-V 464 128 R0
SYMATTR InstName E2
SYMATTR Value 1
SYMBOL crtl-V-V 480 1072 M270
WINDOW 0 -17 112 VLeft 2
WINDOW 3 43 61 VLeft 2
SYMATTR InstName E3
SYMATTR Value 1
SYMBOL MDB_sym\\source-V 384 960 M0
WINDOW 0 28 81 Left 2
WINDOW 3 28 28 Left 2
WINDOW 123 0 0 Left 2
WINDOW 39 0 0 Left 2
SYMATTR InstName V7
SYMATTR Value 0
SYMBOL source-V 336 -288 R0
WINDOW 123 0 0 Left 2
WINDOW 39 0 0 Left 2
SYMATTR InstName V8
SYMATTR Value 0
SYMBOL MDB_sym\\source-Imarker 656 1312 R0
SYMATTR Value I={K8*Vp8**2}
SYMATTR InstName U6
TEXT -176 320 Left 2 !.model Nx NMOS(KP=2m VT0=2 )
TEXT -120 1760 Left 2 ;.dc v2 -3 0.3 0.01
TEXT -120 1736 Left 2 !.model njfx njf(beta=1m VT0=-2 )
TEXT -176 208 Left 2 ;KP = 2*K\nVT0 = VP
TEXT -120 1656 Left 2 ;beta = K\nVT0 = VP
TEXT -176 848 Left 2 ;.dc v3 -4 0 .01
TEXT -176 824 Left 2 !.model Px PMOS(KP=2m VT0=-2)
TEXT -176 720 Left 2 ;KP= 2*K\nVT0 = VP
TEXT -176 344 Left 2 ;.dc v1 0 4 0.01
TEXT -296 -184 Left 2 ;.tran 100m
TEXT -152 1256 Left 2 !.model pjfx pjf(beta=1m VT0=-2)
TEXT -152 1280 Left 2 ;.dc v2 -0.5 4 10m
TEXT 128 1032 Left 2 ;beta= K\nVT0 = ??VP\nVorsicht!\nVT0 negativ\nangeben
TEXT -544 -288 Left 2 !.param r0=1meg\n.param VT0=2\n.param VP=VT0
TEXT -544 -192 Left 2 !.param KP = 2m\n.param K = Kp/2
TEXT 304 320 Left 2 !.model Nx NMOS(KP=2m VT0=2 )
TEXT 360 1760 Left 2 ;.dc v2 -3 0.3 0.01
TEXT 360 1736 Left 2 !.model njfx njf(beta=1m VT0=-2 )
TEXT 312 264 Left 2 ;KP = 2*K\nVT0 = VP
TEXT 360 1656 Left 2 ;beta = K\nVT0 = VP
TEXT 304 848 Left 2 ;.dc v3 -4 0 .01
TEXT 304 824 Left 2 !.model Px PMOS(KP=2m VT0=-2)
TEXT 304 720 Left 2 ;KP= 2*K\nVT0 = VP
TEXT 304 344 Left 2 ;.dc v1 0 4 0.01
TEXT 328 1256 Left 2 !.model pjfx pjf(beta={K8} VT0={Vp8})
TEXT 328 1280 Left 2 ;.dc v2 -0.5 4 10m
TEXT 608 1032 Left 2 ;beta= K\nVT0 = ??VP\nVorsicht!\nVT0 negativ\nangeben
TEXT 472 -192 Left 2 !.dc v8 -.5 4 0.01
TEXT 576 912 Left 2 !.param K8 = 1m\n+ Vp8 = -2V
RECTANGLE Normal -208 368 -672 -112
RECTANGLE Normal -336 192 -592 16 2
RECTANGLE Normal 272 368 -192 -112
RECTANGLE Normal -208 864 -672 384
RECTANGLE Normal 272 864 -192 384
RECTANGLE Normal -336 688 -592 512 2
RECTANGLE Normal 272 1856 -192 1376
RECTANGLE Normal 272 1360 -192 880
RECTANGLE Normal 752 368 288 -112
RECTANGLE Normal 752 864 288 384
RECTANGLE Normal 752 1856 288 1376
RECTANGLE Normal 752 1360 288 880
