Version 4
SHEET 1 880 680
WIRE -32 -208 -80 -208
WIRE 48 -208 -32 -208
WIRE -80 -192 -80 -208
WIRE 48 -112 48 -208
WIRE -80 -16 -80 -32
WIRE -80 96 -80 64
WIRE -16 96 -80 96
WIRE 48 96 48 -48
WIRE 48 96 -16 96
WIRE -80 112 -80 96
FLAG -32 -208 C
FLAG -16 96 X
SYMBOL res -96 -128 R0
SYMATTR InstName Rv1
SYMATTR Value 10
SYMBOL ind -96 -32 R0
SYMATTR InstName L1
SYMATTR Value 100µ
SYMBOL cap 32 -112 R0
SYMATTR InstName C1
SYMATTR Value 250p
SYMBOL MDB_sym\\isoR0 -80 128 R0
WINDOW 0 9 10 Invisible 2
WINDOW 3 19 2 Left 2
SYMATTR InstName U1
SYMBOL MDB_sym\\negRes -80 -160 R0
SYMATTR InstName U2
SYMATTR Value2 R={Rneg}
TEXT 136 -192 Left 2 !.tran 1000u\n.options plotwinsize=0\n.ic V(C,x)=1V\n \n.param Rneg=-11\n.step param Rneg \n+ list -9 -11
