Version 4
SHEET 1 880 680
WIRE -384 -48 -464 -48
WIRE -288 -48 -384 -48
WIRE 128 -32 0 -32
WIRE 240 -32 192 -32
WIRE -464 -16 -464 -48
WIRE -288 -16 -288 -48
WIRE -384 0 -384 -48
WIRE 0 64 0 -32
WIRE 240 64 240 -32
WIRE 240 64 224 64
WIRE -592 96 -656 96
WIRE -464 96 -464 64
WIRE -464 96 -512 96
WIRE -400 96 -400 64
WIRE -400 96 -464 96
WIRE -368 96 -368 64
WIRE -288 96 -288 64
WIRE -288 96 -368 96
WIRE -224 96 -288 96
WIRE -224 128 -224 96
WIRE -656 144 -656 96
WIRE -224 224 -224 208
WIRE -656 272 -656 224
FLAG -224 224 0
FLAG 0 -32 0
FLAG 240 -32 0
FLAG -656 272 0
SYMBOL res 96 48 R90
WINDOW 0 7 56 VBottom 2
WINDOW 3 25 56 VTop 2
SYMATTR InstName R1
SYMATTR Value {Rs}
SYMBOL cap 144 48 R90
WINDOW 0 0 32 VBottom 2
WINDOW 3 32 32 VTop 2
WINDOW 39 61 27 VTop 2
SYMATTR InstName CS1
SYMATTR Value {CS}
SYMATTR SpiceLine Rser=1 Rpar=1meg
SYMBOL cap 192 -48 R90
WINDOW 0 0 32 VBottom 2
WINDOW 3 32 32 VTop 2
WINDOW 39 13 -164 VTop 2
SYMATTR InstName CP1
SYMATTR Value {CP}
SYMATTR SpiceLine Rser=1 Rpar=10meg
SYMBOL ind 240 48 R90
WINDOW 0 5 56 VBottom 2
WINDOW 3 32 56 VTop 2
SYMATTR InstName L1
SYMATTR Value {Ls}
SYMBOL EIT_Semiconductors\\op_3 -384 32 M270
WINDOW 123 -17 69 Invisible 2
WINDOW 3 -16 43 Invisible 2
SYMATTR InstName U1
SYMBOL res -448 80 R180
WINDOW 0 36 76 Left 2
WINDOW 3 36 40 Left 2
SYMATTR InstName R2
SYMATTR Value {R}
SYMBOL res -240 112 R0
SYMATTR InstName R4
SYMATTR Value {R2}
SYMBOL res -304 -32 R0
SYMATTR InstName R3
SYMATTR Value {R}
SYMBOL res -608 112 R270
WINDOW 0 25 56 VTop 2
WINDOW 3 7 56 VBottom 2
SYMATTR InstName R5
SYMATTR Value 1
SYMBOL MDB_sym\\source-V -656 128 R0
WINDOW 123 0 0 Left 2
WINDOW 39 0 0 Left 2
SYMATTR InstName V1
SYMATTR Value 5
TEXT -32 152 Left 2 ;Quartz Crystal Equivalent Model
TEXT -32 -360 Left 2 ;NIC Tietze/Schenk 12.5 S.806
TEXT -440 288 Left 2 !.param NIC=1\n+ R = 1k\n+ R2 = 100\n+ RLeitung = 200
TEXT -588 386 Left 2 !.dc V1 0 5 .1
TEXT 512 -120 Left 2 !.param mod=1\n+ Rop = 470\n+ CL = 10pF\n \n+ Rs = 6.4\n+ Cs = 99.7fF\n+ Ls = 2.546mH\n+ Cp = 28pF\n;----------------\n+ f0 = 10meg
RECTANGLE Normal 272 128 -32 -96 2
