Version 4
SHEET 1 880 680
WIRE 192 -336 128 -336
WIRE 128 -304 128 -336
WIRE 128 -208 128 -224
WIRE 0 -144 0 -176
WIRE 32 -144 32 -176
WIRE 192 -96 128 -96
WIRE 128 -64 128 -96
WIRE 0 -32 0 -64
WIRE 0 -32 -32 -32
WIRE 80 -32 0 -32
WIRE 32 0 32 -64
WIRE 32 0 -32 0
WIRE 80 0 32 0
WIRE 128 32 128 16
FLAG 128 -208 0
FLAG 192 -336 noise
IOPIN 192 -336 Out
FLAG 128 32 0
FLAG 192 -96 noiseBin
IOPIN 192 -96 Out
FLAG -32 -32 hi_val
IOPIN -32 -32 In
FLAG -32 0 lo_val
IOPIN -32 0 In
SYMBOL bv 128 -320 R0
WINDOW 3 53 97 Left 2
SYMATTR Value V=random(TIME*N_PER_SEC)
SYMATTR InstName B1
SYMBOL bv 128 -80 R0
WINDOW 3 53 97 Left 2
SYMATTR Value V=if(V(noise),V(hi_val),V(lo_val))
SYMATTR InstName B2
SYMBOL res 16 -160 M0
SYMATTR InstName R1
SYMATTR Value 100k
SYMBOL res 16 -160 R0
SYMATTR InstName R2
SYMATTR Value 100k
SYMBOL EIT_Digital\\level-high 0 -176 R90
SYMATTR InstName U1
SYMBOL EIT_Digital\\level-low 32 -176 R90
SYMATTR InstName U2
TEXT 104 -184 Left 2 !.tran 10m
TEXT -88 80 Left 2 !.param N_PER_SEC = 10k\n.param vpwr$_digital = 1V
