Version 4
SHEET 1 2788 1584
WIRE 240 -848 160 -848
WIRE 352 -848 240 -848
WIRE 160 -832 160 -848
WIRE 240 -832 240 -848
WIRE -544 -816 -544 -848
WIRE -336 -816 -336 -848
WIRE -96 -816 -96 -832
WIRE 80 -816 64 -816
WIRE 352 -816 352 -848
WIRE -592 -800 -624 -800
WIRE -416 -800 -448 -800
WIRE -176 -800 -192 -800
WIRE 80 -768 64 -768
WIRE -592 -752 -624 -752
WIRE -416 -752 -448 -752
WIRE -176 -752 -192 -752
WIRE 160 -736 160 -752
WIRE 240 -736 240 -752
WIRE 352 -736 352 -752
WIRE -336 -720 -336 -736
WIRE -96 -720 -96 -736
WIRE -544 -704 -544 -736
WIRE 240 -640 160 -640
WIRE 352 -640 240 -640
WIRE 160 -624 160 -640
WIRE 240 -624 240 -640
WIRE -544 -608 -560 -608
WIRE -512 -608 -544 -608
WIRE -368 -608 -384 -608
WIRE -336 -608 -368 -608
WIRE 80 -608 64 -608
WIRE 352 -608 352 -640
WIRE -560 -576 -560 -608
WIRE -384 -576 -384 -608
WIRE -208 -560 -208 -576
WIRE -80 -560 -80 -576
WIRE 80 -560 64 -560
WIRE 160 -528 160 -544
WIRE 240 -528 240 -544
WIRE 352 -528 352 -544
WIRE -560 -480 -560 -496
WIRE -384 -480 -384 -496
WIRE -208 -464 -208 -480
WIRE -80 -464 -80 -480
WIRE 160 -416 160 -432
WIRE 240 -416 240 -432
WIRE -208 -400 -208 -416
WIRE -80 -400 -80 -416
WIRE -560 -384 -560 -416
WIRE -400 -384 -400 -416
WIRE -624 -368 -640 -368
WIRE -608 -368 -624 -368
WIRE -464 -368 -480 -368
WIRE -448 -368 -464 -368
WIRE 160 -336 160 -352
WIRE 240 -336 240 -352
WIRE -624 -320 -640 -320
WIRE -608 -320 -624 -320
WIRE -464 -320 -480 -320
WIRE -448 -320 -464 -320
WIRE -208 -304 -208 -320
WIRE -80 -304 -80 -320
WIRE -560 -272 -560 -304
WIRE -400 -272 -400 -304
WIRE -256 -224 -288 -224
WIRE -160 -208 -192 -208
WIRE -256 -192 -288 -192
WIRE -592 -96 -608 -96
WIRE -400 -96 -512 -96
WIRE -384 -96 -400 -96
WIRE -304 -96 -320 -96
WIRE -608 -64 -608 -96
WIRE -208 -64 -224 -64
WIRE -128 -64 -144 -64
WIRE 128 -48 96 -48
WIRE -384 -32 -400 -32
WIRE -304 -32 -320 -32
WIRE 240 -32 224 -32
WIRE 272 -32 240 -32
WIRE 128 -16 96 -16
WIRE 272 -16 272 -32
WIRE -400 16 -400 -32
WIRE -336 16 -400 16
WIRE -256 16 -336 16
WIRE -128 16 -128 -64
WIRE -128 16 -176 16
WIRE 144 16 144 0
WIRE -336 48 -336 16
WIRE -608 64 -608 16
WIRE 272 80 272 64
WIRE -336 160 -336 128
FLAG -560 -480 0
FLAG -544 -608 3
FLAG -384 -480 0
FLAG -368 -608 4
FLAG -560 -416 5
FLAG -560 -272 3
FLAG -624 -368 5
FLAG -624 -320 N003
FLAG -400 -416 4
FLAG -464 -320 5
FLAG -464 -368 N003
FLAG -400 -272 5
FLAG 160 -336 4
FLAG 240 -336 5
FLAG 240 -432 3
FLAG 160 -432 5
FLAG -80 -416 3
FLAG -80 -304 2
FLAG -208 -416 3
FLAG -208 -304 1
FLAG -208 -576 1
FLAG -80 -576 2
FLAG -208 -464 4
FLAG -80 -464 4
FLAG -544 -704 0
FLAG -336 -720 0
FLAG -336 -848 0
FLAG -544 -848 0
FLAG -448 -752 0
FLAG -448 -800 0
FLAG -624 -752 0
FLAG -624 -800 0
FLAG 144 16 0
FLAG 240 -32 N002
FLAG 272 80 0
FLAG -608 64 0
FLAG -304 -96 1
FLAG -304 -32 2
FLAG -400 -96 in_p
FLAG -400 -32 in_m
FLAG -224 -64 5
FLAG -128 -64 out
FLAG -336 160 0
FLAG -288 -224 1
FLAG -288 -192 2
FLAG -160 -208 5
FLAG -96 -720 N002
FLAG -96 -832 0
FLAG -192 -800 N002
FLAG -192 -752 5
FLAG 240 -736 0
FLAG 160 -848 N004
FLAG 64 -816 N002
FLAG 64 -768 0
FLAG 160 -736 0
FLAG 240 -528 0
FLAG 160 -640 N003
FLAG 64 -608 N002
FLAG 64 -560 0
FLAG 160 -528 0
FLAG 352 -528 0
FLAG 352 -736 0
FLAG 96 -48 1
FLAG 96 -16 2
SYMBOL source-V -560 -592 R0
SYMATTR InstName vpl1
SYMATTR Value {Vp}
SYMBOL source-V -384 -592 R0
SYMATTR InstName vmi1
SYMATTR Value {Vm}
SYMBOL sw -544 -832 R0
SYMATTR InstName S1
SYMATTR Value Q
SYMBOL sw -560 -400 R0
SYMATTR InstName S2
SYMATTR Value Q
SYMBOL sw -400 -400 R0
SYMATTR InstName S3
SYMATTR Value Q
SYMBOL cap 144 -416 R0
SYMATTR InstName C3
SYMATTR Value 1p
SYMBOL cap 224 -416 R0
SYMATTR InstName C4
SYMATTR Value 1p
SYMBOL crtl-V-I -336 -832 R0
WINDOW 3 16 144 Left 2
SYMATTR InstName Gp1
SYMATTR Value {1/Rout}
SYMBOL res -96 -416 R0
WINDOW 123 36 100 Left 2
SYMATTR InstName R3
SYMATTR Value {2*Rin}
SYMATTR Value2 noiseless
SYMBOL res -224 -416 R0
WINDOW 123 36 100 Left 2
SYMATTR InstName R4
SYMATTR Value {2*Rin}
SYMATTR Value2 noiseless
SYMBOL res -224 -576 R0
WINDOW 123 36 100 Left 2
SYMATTR InstName R5
SYMATTR Value {2*Rin}
SYMATTR Value2 noiseless
SYMBOL res -96 -576 R0
WINDOW 123 36 100 Left 2
SYMATTR InstName R6
SYMATTR Value {2*Rin}
SYMATTR Value2 noiseless
SYMBOL MDB_sym\\otaMDB 160 -32 R0
WINDOW 3 -235 558 Center 2
SYMATTR InstName A1aa
SYMATTR Value G={A0/Rout} ref={Vos} Iout={1.e+6*sr*Cout} Cout={Cout} en={en} enk={enk} in={in} ink={ink} incm={incm} incmk={incmk} Vhigh=1e308 Vlow=-1e308
SYMATTR Value2 ""
SYMBOL res 256 -32 R0
WINDOW 123 36 100 Left 2
SYMATTR InstName R7
SYMATTR Value {Rout}
SYMATTR Value2 noiseless
SYMBOL source-V -608 -80 R0
WINDOW 123 0 0 Left 2
WINDOW 39 0 0 Left 2
SYMATTR InstName V2
SYMATTR Value SINE(0 1 1k)
SYMBOL res -608 -80 R270
WINDOW 0 25 56 VTop 2
WINDOW 3 7 56 VBottom 2
SYMATTR InstName R9
SYMATTR Value 1k
SYMBOL MDB_sym\\jumperRes -352 -160 R0
SYMATTR InstName U4
SYMBOL MDB_sym\\jumperRes -352 -96 R0
SYMATTR InstName U5
SYMBOL MDB_sym\\jumperRes -176 -128 R0
SYMATTR InstName U6
SYMBOL res -160 0 R90
WINDOW 0 7 56 VBottom 2
WINDOW 3 25 56 VTop 2
SYMATTR InstName R10
SYMATTR Value 20k
SYMBOL res -320 144 R180
WINDOW 0 36 76 Left 2
WINDOW 3 36 40 Left 2
SYMATTR InstName R11
SYMATTR Value 10k
SYMBOL crtl-V-I -96 -832 R0
WINDOW 3 -185 -70 Left 2
SYMATTR Value table (-500m {-2.e+6*sr*Cout} -100m 0 100m 0 500m {2.e+6*sr*Cout})
SYMATTR InstName G1
SYMBOL crtl-V-I 160 -848 R0
WINDOW 3 16 144 Left 2
SYMATTR Value {1/Rout}
SYMATTR InstName Gp2
SYMBOL res 224 -848 R0
WINDOW 123 36 100 Left 2
SYMATTR Value2 noiseless
SYMATTR InstName Rp1
SYMATTR Value {Rout}
SYMBOL crtl-V-I 160 -640 R0
WINDOW 3 16 144 Left 2
SYMATTR Value {1/Rout}
SYMATTR InstName Gp3
SYMBOL res 224 -640 R0
WINDOW 123 36 100 Left 2
SYMATTR Value2 noiseless
SYMATTR InstName Rp2
SYMATTR Value {Rout}
SYMBOL cap 336 -608 R0
SYMATTR InstName Cp1
SYMATTR Value {cout*tan(pi*(0.25-phir/360))/A0}
SYMBOL cap 336 -816 R0
SYMATTR InstName Cp2
SYMATTR Value {cout*tan(pi*(0.25-phir/360))/A0}
TEXT 864 -1016 Left 2 ;* Copyright © Linear Technology Corp. 1998, 1999, 2000, 2001, 2002, 2003, 2004, 2005, 2006.  All rights reserved.\n*\n* 1= in+\n* 2= in-\n* 3= Vplus\n* 4= Vminus\n* 5= output\n*\n****************************************************++\n* Opamp mit 3 beinchen\n* Vplut und Vminus als Parameter zu übergeben\n*\n* 1= in+\n* 2= in-\n* 5= output\n*\n.subckt opamp_param_3 1 2 5\n*\n*interne Spannungsquellen:\nvpl 3 0 {Vp}\nvmi 4 0 {Vm}\n*\nS1 5 3 N003 5 Q\nS2 4 5 5 N003 Q\n*e1 5 0 n003 0 1\nA1 2 1 0 0 0 0 N002 0 OTA G={A0/Rout} ref={Vos} Iout={1.e+6*sr*Cout} Cout={Cout} en={en} enk={enk} in={in} ink={ink} incm={incm} incmk={incmk} Vhigh=1e308 Vlow=-1e308\nR7 0 N002 {Rout} noiseless\nC3 5 4 1p\nC4 3 5 1p\nGp2 0 N004 N002 0 {1/Rout}\nRp2 N004 0 {Rout} noiseless\nGp3 0 N003 N004 0 {1/Rout}\nRp3 N003 0 {Rout} noiseless\n* cp2=cout/A0 ergibt genau eine Eckfrequenz bei ft d.h. 45grad (omegat=A0/(Cout*Rout))\n*  zusätzliche Phasenverschiebung: Phir=45deg.\n*Cp2 N003 0 {1*Cout/A0}\n* jetzt beliebige Phasenreserve berücksichtigen: phi= -arctg(omegat*Rout*Cout)\n* phir = 90° - arctg(omegat*Rout*Cout)\n* folglich C = tan(90°-phir) /(Rout*omegat) = tan(180°-phir) /(cout/A0)\n*Cp2 N003 0 {cout*tan(pi*(0.5-phir/180))/A0}\n* CP2Abweichend von dem OP-Modell von Linear technologies\n*\n* statt einem Pol 2 Pole.\n* phir = 90° - 2*arctg(omegat*Rout*Cout)\n* folglich C = tan((90°-phir))/2) /(Rout*omegat) = tan(180°-phir) /(cout/A0)\nCp2 N003 0 {cout*tan(pi*(0.25-phir/360))/A0}\nCp3 N004 0 {cout*tan(pi*(0.25-phir/360))/A0}\n \nR3 3 2 {2*Rin} noiseless\nR4 3 1 {2*Rin} noiseless\nR5 1 4 {2*Rin} noiseless\nR6 2 4 {2*Rin} noiseless\n* Begrenzung der Ausgangsspannung des OTA wenn Ausgangsspannungsbegrenzung eintritt\n* damit die Spannung nicht ins unendliche steigt; realer OP damit nachgebildet.\n* realer OP begrenzt auch die Ausgangsspannung des internen Verstärkers \n* mit der Kompensationskapazität\nG2  N002 0  N002 5 table (-500m {-2.e+6*sr*Cout} -100m 0 100m 0 500m {2.e+6*sr*Cout})\n.param Vp=10 Vm=10\n.param Rout=100Meg\n.param Cout={A0/FT/2/pi/Rout}\n.model Q SW(Ron=10 Roff=10Meg Vt=0 Vh=-.1 Vser={Rail} ilimit={ilim} noiseless level=2 epsilon={Rail/10})\n.param A0=1Meg FT=10Meg Sr=10 rail=0 Vos=0 ilim=25m\n.param en=0 enk=0 in=0 ink=0 incm=0 incmk=0 Rin=1G phir=45\n.ends opamp_param_5\n*\n*\n** Komparator open-Collector ähnlich LM229\n* 1= in+\n* 2= in-\n* 3= output\n* 4= ground\n*\n****************************************************++\n.subckt comp_oc 1 2 out masse\n*A13 1 2 0 0 0 0 N010 0 SCHMITT Vt=0 VH=0 vhigh=1 Vlow=-1 \ng0 n010 0 1 2 -1m \nd0 n010 0 dx \nc0 N010 0 {cfilt}\nG1 N011 masse N010 0 {Iout/1000}\nQ1 Out N011 masse qx\nD1  masse N011  dx\nc1 N011 0 {cfilt} \n.model qx npn (BF=100)\n.model dx d (bv=10 ibv=1m)\n* Miller-Kondensator\n*c1 N011 out {cfilt}\n*s1 out masse  N010 0 swx  \n*.model swx SW(Ron=1 Roff=10Meg Vt=0.5 Vh=-.4 ilimit={Iout} level=2 epsilon=10m)\n.param Iout=15m cfilt=0.1p\n.ends comp_oc
TEXT -560 -824 Left 2 ;1
TEXT -560 -728 Left 2 ;2
TEXT -608 -736 Left 2 ;3
TEXT -608 -816 Left 2 ;4
TEXT -360 -736 Left 2 ;1
TEXT -352 -832 Left 2 ;2
TEXT -424 -816 Left 2 ;3
TEXT -424 -768 Left 2 ;4
TEXT -680 304 Left 2 !.param Vp=10 Vm=-10\n.param Rout=100Meg\n.param Cout={A0/FT/2/pi/Rout}\n.model Q SW(Ron=10 Roff=10Meg Vt=0 Vh=-.1 Vser={Rail} ilimit={ilim} noiseless level=2 epsilon={Rail/10})\n.param A0=1Meg FT=10Meg Sr=10 rail=0 Vos=0 ilim=25m\n.param en=0 enk=0 in=0 ink=0 incm=0 incmk=0 Rin=1G phir=45
TEXT -72 -232 Left 2 ;1= in+\n2= in-\n5= output
TEXT -568 696 Left 2 ;Cp2 N003 0 {cout*tan(pi*(0.25-phir/360))/A0}\nCp3 N004 0 {cout*tan(pi*(0.25-phir/360))/A0}\n \n;C3 5 4 1p\n;C4 3 5 1p\nGp2 0 N004 N002 0 {1/Rout}\nRp2 N004 0 {Rout} noiseless\nGp3 0 N003 N004 0 {1/Rout}\nRp3 N003 0 {Rout} noiseless\nG2  N002 0  N002 5 table (-500m {-2.e+6*sr*Cout} -100m 0 100m 0 500m {2.e+6*sr*Cout})
TEXT -808 608 Left 2 ;A1 2 1 0 0 0 0 N002 0 OTA G={A0/Rout} ref={Vos} Iout={1.e+6*sr*Cout} Cout={Cout} en={en} enk={enk} in={in} ink={ink} incm={incm} incmk={incmk} Vhigh=1e308 Vlow=-1e308
TEXT -30 306 Left 2 !.tran 3m
RECTANGLE Normal 672 496 -736 -960 2
