Version 4
SHEET 1 2788 1584
WIRE -240 -1264 -256 -1264
WIRE -48 -1264 -160 -1264
WIRE -32 -1264 -48 -1264
WIRE 48 -1264 32 -1264
WIRE -256 -1232 -256 -1264
WIRE 144 -1232 128 -1232
WIRE 224 -1232 208 -1232
WIRE -32 -1200 -48 -1200
WIRE 48 -1200 32 -1200
WIRE -48 -1152 -48 -1200
WIRE 16 -1152 -48 -1152
WIRE 96 -1152 16 -1152
WIRE 224 -1152 224 -1232
WIRE 224 -1152 176 -1152
WIRE 16 -1120 16 -1152
WIRE -256 -1104 -256 -1152
WIRE 16 -1008 16 -1040
WIRE 240 -848 160 -848
WIRE 352 -848 240 -848
WIRE 160 -832 160 -848
WIRE 240 -832 240 -848
WIRE -544 -816 -544 -848
WIRE -336 -816 -336 -848
WIRE -96 -816 -96 -832
WIRE 80 -816 64 -816
WIRE 352 -816 352 -848
WIRE -592 -800 -624 -800
WIRE -416 -800 -448 -800
WIRE -176 -800 -192 -800
WIRE 80 -768 64 -768
WIRE -592 -752 -624 -752
WIRE -416 -752 -448 -752
WIRE -176 -752 -192 -752
WIRE 160 -736 160 -752
WIRE 240 -736 240 -752
WIRE 352 -736 352 -752
WIRE -336 -720 -336 -736
WIRE -96 -720 -96 -736
WIRE -544 -704 -544 -736
WIRE 240 -640 160 -640
WIRE 352 -640 240 -640
WIRE 160 -624 160 -640
WIRE 240 -624 240 -640
WIRE -544 -608 -560 -608
WIRE -512 -608 -544 -608
WIRE -368 -608 -384 -608
WIRE -336 -608 -368 -608
WIRE 80 -608 64 -608
WIRE 352 -608 352 -640
WIRE -560 -576 -560 -608
WIRE -384 -576 -384 -608
WIRE -208 -560 -208 -576
WIRE -80 -560 -80 -576
WIRE 80 -560 64 -560
WIRE 160 -528 160 -544
WIRE 240 -528 240 -544
WIRE 352 -528 352 -544
WIRE -560 -480 -560 -496
WIRE -384 -480 -384 -496
WIRE -208 -464 -208 -480
WIRE -80 -464 -80 -480
WIRE 384 -448 352 -448
WIRE 496 -432 480 -432
WIRE 528 -432 496 -432
WIRE 160 -416 160 -432
WIRE 240 -416 240 -432
WIRE 384 -416 352 -416
WIRE 528 -416 528 -432
WIRE -208 -400 -208 -416
WIRE -80 -400 -80 -416
WIRE -560 -384 -560 -416
WIRE -400 -384 -400 -416
WIRE 400 -384 400 -400
WIRE -624 -368 -640 -368
WIRE -608 -368 -624 -368
WIRE -464 -368 -480 -368
WIRE -448 -368 -464 -368
WIRE 160 -336 160 -352
WIRE 240 -336 240 -352
WIRE -624 -320 -640 -320
WIRE -608 -320 -624 -320
WIRE -464 -320 -480 -320
WIRE -448 -320 -464 -320
WIRE 528 -320 528 -336
WIRE -208 -304 -208 -320
WIRE -80 -304 -80 -320
WIRE -560 -272 -560 -304
WIRE -400 -272 -400 -304
WIRE -256 -224 -288 -224
WIRE -160 -208 -192 -208
WIRE -256 -192 -288 -192
FLAG -560 -480 0
FLAG -544 -608 3
FLAG -384 -480 0
FLAG -368 -608 4
FLAG -560 -416 5
FLAG -560 -272 3
FLAG -624 -368 5
FLAG -624 -320 N003
FLAG -400 -416 4
FLAG -464 -320 5
FLAG -464 -368 N003
FLAG -400 -272 5
FLAG 160 -336 4
FLAG 240 -336 5
FLAG 240 -432 3
FLAG 160 -432 5
FLAG -80 -416 3
FLAG -80 -304 2
FLAG -208 -416 3
FLAG -208 -304 1
FLAG -208 -576 1
FLAG -80 -576 2
FLAG -208 -464 4
FLAG -80 -464 4
FLAG -544 -704 0
FLAG -336 -720 0
FLAG -336 -848 0
FLAG -544 -848 0
FLAG -448 -752 0
FLAG -448 -800 0
FLAG -624 -752 0
FLAG -624 -800 0
FLAG 400 -384 0
FLAG 496 -432 N002
FLAG 528 -320 0
FLAG -256 -1104 0
FLAG 48 -1264 1
FLAG 48 -1200 2
FLAG -48 -1264 in_p
FLAG -48 -1200 in_m
FLAG 128 -1232 5
FLAG 224 -1232 out
FLAG 16 -1008 0
FLAG -288 -224 1
FLAG -288 -192 2
FLAG -160 -208 5
FLAG -96 -720 N002
FLAG -96 -832 0
FLAG -192 -800 N002
FLAG -192 -752 5
FLAG 240 -736 0
FLAG 160 -848 N004
FLAG 64 -816 N002
FLAG 64 -768 0
FLAG 160 -736 0
FLAG 240 -528 0
FLAG 160 -640 N003
FLAG 64 -608 N002
FLAG 64 -560 0
FLAG 160 -528 0
FLAG 352 -528 0
FLAG 352 -736 0
FLAG 352 -448 1
FLAG 352 -416 2
SYMBOL source-V -560 -592 R0
SYMATTR InstName vpl1
SYMATTR Value {Vp}
SYMBOL source-V -384 -592 R0
SYMATTR InstName vmi1
SYMATTR Value {Vm}
SYMBOL sw -544 -832 R0
SYMATTR InstName S1
SYMATTR Value Q
SYMBOL sw -560 -400 R0
SYMATTR InstName S2
SYMATTR Value Q
SYMBOL sw -400 -400 R0
SYMATTR InstName S3
SYMATTR Value Q
SYMBOL cap 144 -416 R0
SYMATTR InstName C3
SYMATTR Value 1p
SYMBOL cap 224 -416 R0
SYMATTR InstName C4
SYMATTR Value 1p
SYMBOL crtl-V-I -336 -832 R0
WINDOW 3 16 144 Left 2
SYMATTR InstName Gp1
SYMATTR Value {1/Rout}
SYMBOL res -96 -416 R0
WINDOW 123 36 100 Left 2
SYMATTR InstName R3
SYMATTR Value {2*Rin}
SYMATTR Value2 noiseless
SYMBOL res -224 -416 R0
WINDOW 123 36 100 Left 2
SYMATTR InstName R4
SYMATTR Value {2*Rin}
SYMATTR Value2 noiseless
SYMBOL res -224 -576 R0
WINDOW 123 36 100 Left 2
SYMATTR InstName R5
SYMATTR Value {2*Rin}
SYMATTR Value2 noiseless
SYMBOL res -96 -576 R0
WINDOW 123 36 100 Left 2
SYMATTR InstName R6
SYMATTR Value {2*Rin}
SYMATTR Value2 noiseless
SYMBOL MDB_sym\\otaMDB 416 -432 R0
WINDOW 3 -447 322 Center 2
SYMATTR InstName A1aa
SYMATTR Value G={A0/Rout} ref={Vos} Iout={1.e+6*sr*Cout} Cout={Cout} en={en} enk={enk} in={in} ink={ink} incm={incm} incmk={incmk} Vhigh=1e308 Vlow=-1e308
SYMATTR Value2 ""
SYMBOL res 512 -432 R0
WINDOW 123 36 100 Left 2
SYMATTR InstName R7
SYMATTR Value {Rout}
SYMATTR Value2 noiseless
SYMBOL source-V -256 -1248 R0
WINDOW 123 0 0 Left 2
WINDOW 39 0 0 Left 2
SYMATTR InstName V2
SYMATTR Value SINE(0 1 1k)
SYMBOL res -256 -1248 R270
WINDOW 0 25 56 VTop 2
WINDOW 3 7 56 VBottom 2
SYMATTR InstName R9
SYMATTR Value 1k
SYMBOL MDB_sym\\jumperRes 0 -1328 R0
SYMATTR InstName U4
SYMBOL MDB_sym\\jumperRes 0 -1264 R0
SYMATTR InstName U5
SYMBOL MDB_sym\\jumperRes 176 -1296 R0
SYMATTR InstName U6
SYMBOL res 192 -1168 R90
WINDOW 0 7 56 VBottom 2
WINDOW 3 25 56 VTop 2
SYMATTR InstName R10
SYMATTR Value 20k
SYMBOL res 32 -1024 R180
WINDOW 0 36 76 Left 2
WINDOW 3 36 40 Left 2
SYMATTR InstName R11
SYMATTR Value 10k
SYMBOL crtl-V-I -96 -832 R0
WINDOW 3 -185 -70 Left 2
SYMATTR Value table (-500m {-2.e+6*sr*Cout} -100m 0 100m 0 500m {2.e+6*sr*Cout})
SYMATTR InstName G1
SYMBOL crtl-V-I 160 -848 R0
WINDOW 3 16 144 Left 2
SYMATTR Value {1/Rout}
SYMATTR InstName Gp2
SYMBOL res 224 -848 R0
WINDOW 123 36 100 Left 2
SYMATTR Value2 noiseless
SYMATTR InstName Rp1
SYMATTR Value {Rout}
SYMBOL crtl-V-I 160 -640 R0
WINDOW 3 16 144 Left 2
SYMATTR Value {1/Rout}
SYMATTR InstName Gp3
SYMBOL res 224 -640 R0
WINDOW 123 36 100 Left 2
SYMATTR Value2 noiseless
SYMATTR InstName Rp2
SYMATTR Value {Rout}
SYMBOL cap 336 -608 R0
SYMATTR InstName Cp1
SYMATTR Value {cout*tan(pi*(0.25-phir/360))/A0}
SYMBOL cap 336 -816 R0
SYMATTR InstName Cp2
SYMATTR Value {cout*tan(pi*(0.25-phir/360))/A0}
TEXT -560 -824 Left 2 ;1
TEXT -560 -728 Left 2 ;2
TEXT -608 -736 Left 2 ;3
TEXT -608 -816 Left 2 ;4
TEXT -360 -736 Left 2 ;1
TEXT -352 -832 Left 2 ;2
TEXT -424 -816 Left 2 ;3
TEXT -424 -768 Left 2 ;4
TEXT -720 -8 Left 2 !.param Vp=10 Vm=-10\n.param Rout=100Meg\n.param Cout={A0/FT/2/pi/Rout}\n.model Q SW(Ron=10 Roff=10Meg Vt=0 Vh=-.1 Vser={Rail} ilimit={ilim} noiseless level=2 epsilon={Rail/10})\n.param A0=1Meg FT=10Meg Sr=10 rail=0 Vos=0 ilim=25m\n.param en=0 enk=0 in=0 ink=0 incm=0 incmk=0 Rin=1G phir=45
TEXT -72 -232 Left 2 ;1= in+\n2= in-\n5= output
TEXT -286 2 Left 2 !.tran 3m
RECTANGLE Normal 688 -48 -736 -960 2
