Version 4
SHEET 1 1536 680
WIRE 736 128 672 128
WIRE 752 128 736 128
WIRE 816 128 752 128
WIRE 672 160 672 128
WIRE 736 160 736 128
WIRE 816 160 816 128
WIRE 976 224 944 224
WIRE 1024 224 976 224
WIRE 1024 240 1024 224
WIRE 672 272 672 224
WIRE 736 272 736 240
WIRE 816 272 816 240
WIRE 1024 336 1024 320
WIRE 688 416 656 416
WIRE 784 416 752 416
WIRE 800 416 784 416
WIRE 784 480 784 464
WIRE 784 496 784 480
WIRE 784 608 784 576
WIRE 1024 608 1024 416
FLAG 736 272 0
FLAG 672 272 0
FLAG 816 272 0
FLAG 752 128 Zp
FLAG 1024 608 0
FLAG 976 224 Zs
FLAG 656 416 0
FLAG 784 416 Zp
FLAG 784 608 0
FLAG 784 480 Zs
SYMBOL ind 720 144 R0
SYMATTR InstName L1
SYMATTR Value {Lp}
SYMBOL res 800 144 R0
SYMATTR InstName R1
SYMATTR Value {Rp}
SYMBOL res 1008 224 R0
SYMATTR InstName R2
SYMATTR Value {Rs}
SYMBOL ind 1008 320 R0
SYMATTR InstName L2
SYMATTR Value {Ls}
SYMBOL MDB_sym\\source-Imini 720 416 R270
WINDOW 3 -18 0 VBottom 2
WINDOW 0 18 0 VTop 2
WINDOW 123 -45 0 VTop 2
WINDOW 39 0 0 Left 2
SYMATTR Value ""
SYMATTR InstName I1
SYMATTR Value2 AC 1
SYMBOL MDB_sym\\source-V 784 480 R0
WINDOW 123 32 67 Left 2
WINDOW 39 0 0 Left 2
SYMATTR InstName V1
SYMATTR Value ""
SYMATTR Value2 AC 1
TEXT 1208 240 Left 2 !.param transf=1\n+ Q = 1k\n+ f0p = 10meg\n+ Rp = 100k ;{Q/(2*pi*f0p*Cp)}\n+ Cp = 1n\n+ Lp = 10u ;{1/(4*pi**2*f0p**2*Cp)}\n+ w0p = 2*pi*f0p\n;--------------------\n+ Rs = (w0p**2*Lp**2)/Rp\n+ Ls = Lp\n+ Cs = Cp
