Version 4
SHEET 1 880 680
WIRE 336 -144 304 -144
WIRE 128 -112 96 -112
WIRE 336 -112 304 -112
WIRE 336 -80 304 -80
WIRE 144 16 80 16
WIRE 320 16 224 16
WIRE 352 16 320 16
WIRE 320 48 320 16
WIRE 80 96 80 16
WIRE 80 96 -32 96
WIRE 208 96 80 96
WIRE 224 96 208 96
WIRE 256 96 224 96
WIRE -32 112 -32 96
WIRE -32 112 -64 112
WIRE 0 112 -32 112
WIRE 208 112 208 96
WIRE -64 128 -64 112
WIRE 0 128 0 112
WIRE 80 128 80 96
WIRE 80 208 80 192
WIRE 208 208 208 176
WIRE 288 208 208 208
WIRE 320 208 320 144
WIRE 320 208 288 208
WIRE 352 208 320 208
WIRE 384 208 352 208
WIRE -64 224 -64 192
WIRE -32 224 -64 224
WIRE 0 224 0 208
WIRE 0 224 -32 224
WIRE 208 224 208 208
WIRE -32 240 -32 224
WIRE 320 240 320 208
WIRE 80 336 80 272
WIRE 208 336 208 288
WIRE 320 336 320 320
WIRE -32 352 -32 304
FLAG 320 336 0
FLAG 208 336 0
FLAG 80 336 0
FLAG 352 16 VCC
FLAG 128 -112 VCC
FLAG 352 208 E
FLAG 224 96 B
FLAG 336 -144 c_Ve0
FLAG 336 -112 c_Rb
FLAG 336 -80 c_Re
FLAG -32 352 0
FLAG 80 192 0
DATAFLAG 288 208 "round(1e2*$)/1e2"
SYMBOL cap -48 240 R0
SYMATTR InstName Cz
SYMATTR Value {Cz}
SYMBOL cap 192 224 R0
SYMATTR InstName C2
SYMATTR Value {C2}
SYMBOL cap 192 112 R0
SYMATTR InstName C1
SYMATTR Value {C1}
SYMBOL EIT_Semiconductors\\npn 256 48 R0
SYMATTR InstName Q1
SYMATTR Value MMBT5179
SYMBOL res 304 224 R0
SYMATTR InstName Re
SYMATTR Value {Re}
SYMBOL res 240 0 R90
WINDOW 0 7 56 VBottom 2
WINDOW 3 25 56 VTop 2
SYMATTR InstName Rb
SYMATTR Value {Rb}
SYMBOL MDB_sym\\source-Vmarker 96 -112 R0
SYMATTR Value V={VCC}
SYMATTR InstName U2
SYMBOL MDB_sym\\source-Vmarker 304 -144 R0
SYMATTR Value V={Ve0}
SYMATTR InstName U1
SYMBOL MDB_sym\\source-Vmarker 304 -112 R0
SYMATTR Value V={Rb}
SYMATTR InstName U4
SYMBOL MDB_sym\\source-Vmarker 304 -80 R0
SYMATTR Value V={Re}
SYMATTR InstName U5
SYMBOL ind -16 112 R0
SYMATTR InstName L1
SYMATTR Value {Lp}
SYMATTR SpiceLine Rpar=100k
SYMBOL cap -80 128 R0
SYMATTR InstName C3
SYMATTR Value {Cp}
TEXT 424 -232 Left 2 !.param Oscil = 1\n+ Rb = {(Vcc-Vbe0-Ve0)/Ic0*beta}\n+ Cz = {30pF*x}\n+ C1 = 47pF\n+ C2 = 100pF\n+ Re = {Ve0/Ic0}\n+ x = 0.5\n+ f0 = 1meg\n+ Lp = 1u\n+ Cp = {1/(2*pi*sqrt(f0*Lp))}
TEXT -232 -608 Left 2 ;_Skript _HF _H.Sapotta_/_P.54\n_Oszillatorschaltungen _für Quarze sind in der Literatur in großer Zahl beschrieben worden.\n\nHier ist daher eine Beschränkung auf einfache und zuverlässige Schaltungen sinnvoll. Bild\n\n6.5a zeigt eine derartige Anordnung. Es handelt sich um einen schwingenden Emitterfolger.\nDa ein Pol der Ziehkapazität gegen Masse liegt, ist der Abgleich vereinfacht. Der\n\nAbgleichschraubenzieher übt keinen Einfluss auf die Resonanzfrequenz aus. Für die\n\nKondensatoren können folgende Richtwerte dienen: Ziehkapazität (Trimmer) 30pF,\n\nC1=47pF, C2=100pF. Die Widerstände Rb und Re sollten im Rahmen einer\n\nArbeitspunktbestimmung auf einen Emitterstrom von ca. 3mA eingestellt werden.\nDie Schaltung nach Bild 5b eignet sich, um Quarze im Oberton zu erregen. Auch hier sollten\n\ndie Widerstände einen Arbeitspunkt um 3mA einstellen. Der Schwingkreis am Kollektor wird\n\nauf die gewünschte Betriebsfrequenz abgeglichen. Dabei gilt ungefähr CC1=3*CC2 .\n\nWenn man in dieser Schaltung noch eine Kompensation der Parallelkapazität des Quarzes\n\nberücksichtigt, so ist damit ein Erreichen von bis zu 150MHz im 5. Oberton möglich.
TEXT 88 40 Left 3 ;5a
TEXT -224 -232 Left 2 !.model npnx npn (Is={Ic0/exp(Vbe0/Vt)} Bf={beta})
TEXT 640 -160 Left 2 !.param Vt=26m\n+ Ic0 = 3mA\n+ Ve0 = {Vcc/2}\n+ Vbe0 = 0.65V\n+ beta = 200\n+ Vcc = 15V
TEXT -232 416 Left 2 !.tran 10m
TEXT -64 56 Left 2 !.ic V(b)=5V
TEXT -224 -168 Left 2 !.step param Ic0 100u 5m .25m
