Version 4
SHEET 1 968 680
WIRE 368 -1392 272 -1392
WIRE 560 -1392 448 -1392
WIRE -496 -1264 -608 -1264
WIRE -400 -1264 -496 -1264
WIRE 432 -1264 384 -1264
WIRE 512 -1264 432 -1264
WIRE -496 -1248 -496 -1264
WIRE -400 -1248 -400 -1264
WIRE 432 -1216 432 -1264
WIRE 384 -1200 320 -1200
WIRE -656 -1120 -1104 -1120
WIRE -416 -1120 -608 -1120
WIRE -400 -1120 -400 -1168
WIRE -400 -1120 -416 -1120
WIRE 272 -1104 272 -1392
WIRE 272 -1104 224 -1104
WIRE 320 -1104 320 -1200
WIRE 320 -1104 272 -1104
WIRE 432 -1104 432 -1120
WIRE 560 -1104 560 -1392
WIRE 560 -1104 432 -1104
WIRE 608 -1104 560 -1104
WIRE 432 -1088 432 -1104
WIRE -400 -1072 -400 -1120
WIRE -1104 -1024 -1104 -1120
WIRE -1056 -1024 -1104 -1024
WIRE -960 -1024 -992 -1024
WIRE -928 -1024 -960 -1024
WIRE -832 -1024 -864 -1024
WIRE -800 -1024 -832 -1024
WIRE -704 -1024 -736 -1024
WIRE -656 -1024 -704 -1024
WIRE -496 -1024 -496 -1168
WIRE -496 -1024 -608 -1024
WIRE -480 -1024 -496 -1024
WIRE -464 -1024 -480 -1024
WIRE 320 -1008 320 -1104
WIRE 384 -1008 320 -1008
WIRE -960 -992 -960 -1024
WIRE -832 -992 -832 -1024
WIRE -704 -992 -704 -1024
WIRE -128 -960 -128 -976
WIRE -496 -944 -496 -1024
WIRE -400 -944 -400 -976
WIRE 432 -912 432 -992
WIRE 432 -912 384 -912
WIRE 496 -912 432 -912
WIRE -960 -880 -960 -912
WIRE -832 -880 -832 -912
WIRE -704 -880 -704 -912
WIRE -128 -864 -128 -896
WIRE -128 -864 -224 -864
WIRE -496 -832 -496 -864
WIRE -400 -832 -400 -864
WIRE -128 -816 -128 -864
WIRE -224 -768 -224 -864
WIRE -192 -768 -224 -768
WIRE -128 -688 -128 -720
WIRE -816 -544 -1216 -544
WIRE -736 -544 -768 -544
WIRE -624 -544 -656 -544
WIRE -592 -544 -624 -544
WIRE -464 -544 -512 -544
WIRE -624 -480 -624 -544
WIRE -592 -480 -624 -480
WIRE -464 -464 -464 -544
WIRE -464 -464 -528 -464
WIRE -448 -464 -464 -464
WIRE -592 -448 -624 -448
WIRE -624 -400 -624 -448
WIRE -1216 -352 -1216 -544
WIRE -1168 -352 -1216 -352
WIRE -1072 -352 -1104 -352
WIRE -1040 -352 -1072 -352
WIRE -944 -352 -976 -352
WIRE -912 -352 -944 -352
WIRE -768 -352 -848 -352
WIRE -464 -352 -464 -464
WIRE -464 -352 -720 -352
WIRE -1072 -320 -1072 -352
WIRE -944 -320 -944 -352
WIRE -1072 -208 -1072 -240
WIRE -944 -208 -944 -240
WIRE -640 112 -688 112
WIRE -576 112 -640 112
WIRE -688 144 -688 112
WIRE -688 240 -688 224
WIRE -576 256 -576 112
WIRE -688 336 -688 320
WIRE -688 352 -688 336
WIRE -688 464 -688 432
WIRE -624 464 -688 464
WIRE -576 464 -576 320
WIRE -576 464 -624 464
WIRE -688 480 -688 464
FLAG 224 -1104 OSC1
FLAG 608 -1104 OSC2
FLAG -960 -880 0
FLAG -400 -832 0
FLAG -496 -832 0
FLAG -480 -1024 B
FLAG -416 -1120 C
FLAG -128 -688 0
FLAG -128 -976 0
FLAG -832 -880 0
FLAG -704 -880 0
FLAG -1072 -208 0
FLAG -944 -208 0
FLAG -624 -400 0
FLAG -624 -544 inv
FLAG -464 -544 oo
FLAG -688 336 L
FLAG -640 112 C
FLAG -624 464 X
SYMBOL EIT_Semiconductors\\nmos 384 -1088 R0
SYMATTR InstName M1
SYMBOL EIT_Semiconductors\\pmos 384 -1120 M180
SYMATTR InstName M2
SYMBOL MDB_sym\\source-Vmarker 384 -1264 R0
SYMATTR InstName U4
SYMATTR Value V={VDD}
SYMBOL MDB_sym\\source-Vmarker 384 -912 R0
SYMATTR InstName U5
SYMATTR Value V={VSS}
SYMBOL res 352 -1376 R270
WINDOW 0 25 56 VTop 2
WINDOW 3 7 56 VBottom 2
SYMATTR InstName R10
SYMATTR Value 1e6
SYMBOL res -976 -1008 R0
SYMATTR InstName R1
SYMATTR Value {R0}
SYMBOL cap -1056 -1008 R270
WINDOW 0 32 32 VTop 2
WINDOW 3 0 32 VBottom 2
SYMATTR InstName C1
SYMATTR Value {C0}
SYMBOL EIT_Semiconductors\\npn -464 -1072 R0
SYMATTR InstName Q1
SYMATTR Value NPNx
SYMBOL res -416 -960 R0
SYMATTR InstName R4
SYMATTR Value {Re}
SYMBOL res -416 -1264 R0
SYMATTR InstName R5
SYMATTR Value {Rc}
SYMBOL MDB_sym\\source-Vmarker -608 -1264 R0
SYMATTR InstName U1
SYMATTR Value V=10
SYMBOL res -512 -960 R0
SYMATTR InstName R6
SYMATTR Value 14k
SYMBOL res -480 -1264 M0
SYMATTR InstName R12
SYMATTR Value {14k*0.9}
SYMBOL EIT_Semiconductors\\npn -192 -816 R0
SYMATTR InstName Q3
SYMATTR Value NPNx
SYMBOL MDB_sym\\source-Imini -128 -928 R0
WINDOW 39 0 0 Left 2
SYMATTR Value 1m
SYMATTR InstName I1
SYMATTR Value2 ""
SYMBOL res -848 -1008 R0
SYMATTR InstName R2
SYMATTR Value {R0}
SYMBOL cap -928 -1008 R270
WINDOW 0 32 32 VTop 2
WINDOW 3 0 32 VBottom 2
SYMATTR InstName C2
SYMATTR Value {C0}
SYMBOL res -720 -1008 R0
SYMATTR InstName R3
SYMATTR Value {R0}
SYMBOL cap -800 -1008 R270
WINDOW 0 32 32 VTop 2
WINDOW 3 0 32 VBottom 2
SYMATTR InstName C3
SYMATTR Value {C0}
SYMBOL MDB_sym\\jumper -624 -1184 R0
SYMATTR InstName X1
SYMATTR Prefix J
SYMBOL MDB_sym\\jumper -624 -1088 R0
SYMATTR InstName X2
SYMATTR Prefix J
SYMBOL EIT_Semiconductors\\op_3 -560 -464 R0
WINDOW 123 -17 69 Invisible 2
WINDOW 3 -16 43 Invisible 2
SYMATTR InstName U2
SYMBOL res -608 -528 R270
WINDOW 0 25 56 VTop 2
WINDOW 3 7 56 VBottom 2
SYMATTR InstName R7
SYMATTR Value {V*R0}
SYMBOL res -752 -528 R270
WINDOW 0 25 56 VTop 2
WINDOW 3 7 56 VBottom 2
SYMATTR InstName R8
SYMATTR Value {R0}
SYMBOL res -1088 -336 R0
SYMATTR InstName R9
SYMATTR Value {R0}
SYMBOL res -960 -336 R0
SYMATTR InstName R11
SYMATTR Value {R0}
SYMBOL cap -848 -336 M270
WINDOW 0 32 32 VTop 2
WINDOW 3 0 32 VBottom 2
SYMATTR InstName C6
SYMATTR Value {C0}
SYMBOL MDB_sym\\jumper -784 -608 R0
SYMATTR InstName X3
SYMATTR Prefix J
SYMBOL MDB_sym\\jumper -736 -416 R0
SYMATTR InstName X4
SYMATTR Prefix J
SYMBOL cap -976 -336 M270
WINDOW 0 32 32 VTop 2
WINDOW 3 0 32 VBottom 2
SYMATTR InstName C4
SYMATTR Value {C0}
SYMBOL cap -1104 -336 M270
WINDOW 0 32 32 VTop 2
WINDOW 3 0 32 VBottom 2
SYMATTR InstName C5
SYMATTR Value {C0}
SYMBOL res -704 224 R0
SYMATTR InstName Rv
SYMATTR Value 10
SYMBOL ind -704 336 R0
SYMATTR InstName L1
SYMATTR Value 100µ
SYMBOL cap -592 256 R0
SYMATTR InstName C7
SYMATTR Value 250p
SYMBOL MDB_sym\\isoR0 -688 496 R0
WINDOW 0 9 10 Invisible 2
WINDOW 3 19 2 Left 2
SYMATTR InstName U3
SYMBOL MDB_sym\\negRes -688 176 R0
SYMATTR InstName U6
SYMATTR Value2 R=-10.5
TEXT 112 -856 Left 2 !.param mod=1\n+ Rop = 470\n+ CL = 10pF\n \n+ Rs = 6.4\n+ Cs = 99.7fF\n+ Ls = 2.546mH\n+ Cp = 28pF\n;----------------\n+ f0 = 10meg
TEXT 112 -520 Left 2 !.tran 100m
TEXT 88 -488 Left 2 !.options plotwinsize = 0
TEXT 312 -808 Left 2 !.param power=1\n+ VDD = 5V\n+ VSS = 0V ;{-VDD}
TEXT -272 -1368 Left 2 !.param Vap = 5V\n.param Ic0 = 1mA\n.param Vbe0 = .65V\n.param beta = 200\n+ Re = 100\n+ Rc = 500\n+ Rb = 70k
TEXT -576 -1408 Left 2 !.model npnx npn (Is={Ic0/exp(Vbe0/26m)} Bf={beta})
TEXT -264 -1088 Left 2 !.param Schieber=1\n+ R0 = 100k\n+ C0 =100p
TEXT -680 -648 Left 2 !.ic V(inv) = 1V
TEXT -568 -608 Left 2 !.param V = 30
TEXT -784 -296 Left 2 ;.step param V list 50 40 30 28 27 26
TEXT -504 128 Left 2 !.ic V(C,x)=1V
TEXT -440 -112 Left 2 ;E = R_total/R_sense - 1
TEXT -504 192 Left 2 !.param _0=1\n+ Rsen = 1\n+ Rtot = -11
