Version 4
SHEET 1 2056 1444
WIRE 784 -576 768 -576
WIRE 912 -576 896 -576
WIRE 784 -464 768 -464
WIRE 912 -464 896 -464
WIRE 784 -352 768 -352
WIRE 912 -352 896 -352
WIRE 864 -240 848 -240
WIRE 912 -240 896 -240
WIRE 864 -208 848 -208
WIRE 912 -208 896 -208
WIRE 176 -128 144 -128
WIRE 224 -128 176 -128
WIRE 880 -128 848 -128
WIRE 896 -128 880 -128
WIRE 144 -112 144 -128
WIRE 880 -80 848 -80
WIRE 896 -80 880 -80
WIRE 880 -48 848 -48
WIRE 896 -48 880 -48
WIRE 16 112 -16 112
WIRE 32 112 16 112
WIRE 96 112 64 112
WIRE 240 112 176 112
WIRE 384 112 240 112
WIRE 416 112 384 112
WIRE 496 112 480 112
WIRE 560 112 528 112
WIRE 592 112 560 112
WIRE 720 112 624 112
WIRE 560 128 560 112
WIRE 240 160 240 112
WIRE 720 160 720 112
WIRE 112 176 112 160
WIRE -16 192 -16 112
WIRE 384 192 384 112
WIRE 560 192 560 160
WIRE 160 208 160 160
WIRE -16 288 -16 272
WIRE 240 288 240 240
WIRE 720 288 720 240
WIRE 384 304 384 256
WIRE 560 304 560 256
FLAG 560 304 0
FLAG 384 304 0
FLAG 240 288 0
FLAG -16 288 0
FLAG 720 288 0
FLAG 160 288 0
FLAG 112 176 0
FLAG 720 112 VRl
FLAG 560 112 a
FLAG 384 112 s
FLAG 144 -32 0
FLAG 176 -128 rippleOffset
FLAG 768 -352 0
FLAG 912 -352 0
FLAG 768 -464 0
FLAG 912 -464 0
FLAG 768 -576 0
FLAG 912 -576 0
FLAG 880 -48 p
FLAG 880 -80 GND2
FLAG 912 -208 0
FLAG 880 -128 L1c
FLAG 912 -240 0
FLAG 16 112 e
SYMBOL MDB_sym\\source-V -16 176 R0
WINDOW 123 0 0 Left 2
WINDOW 39 0 0 Left 2
SYMATTR InstName V1
SYMATTR Value {Ve}
SYMBOL ind 224 144 R0
WINDOW 39 24 107 Left 2
SYMATTR SpiceLine Rser=20m
SYMATTR InstName L1
SYMATTR Value {L1}
SYMBOL cap 368 192 R0
WINDOW 39 24 90 Left 2
SYMATTR SpiceLine Rser=5
SYMATTR InstName Cp
SYMATTR Value {Cpar}
SYMBOL diode 480 96 R90
WINDOW 0 0 32 VBottom 2
WINDOW 3 32 32 VTop 2
SYMATTR InstName D1
SYMATTR Value Dx2
SYMBOL cap 544 192 R0
WINDOW 39 24 90 Left 2
SYMATTR SpiceLine Rser=.01
SYMATTR InstName Ca
SYMATTR Value {Ca}
SYMBOL MDB_sym\\source-I 720 240 M180
WINDOW 0 29 73 Left 2
WINDOW 3 25 17 Left 2
WINDOW 39 29 -9 Left 2
WINDOW 123 0 0 Left 2
SYMATTR InstName I_load
SYMATTR Value {Ia}
SYMBOL MDB_sym\\source-V 160 192 M0
WINDOW 3 -128 171 Left 2
WINDOW 123 0 0 Left 2
WINDOW 39 0 0 Left 2
SYMATTR Value PULSE(0 1 0 1p 1p {p*T} {T})
SYMATTR InstName V2
SYMBOL sw 80 112 R270
SYMATTR InstName S1
SYMATTR Value M1
SYMBOL bv 144 -128 R0
WINDOW 3 -151 134 Left 2
SYMATTR InstName B1
SYMATTR Value V=max(V(a),-10)-min(V(a),10)
SYMBOL MDB_sym\\arrow_curr 560 144 R0
SYMATTR InstName rIc
SYMBOL MDB_sym\\arrow_curr 512 112 R90
WINDOW 0 -4 0 VBottom 2
SYMATTR InstName rId
SYMBOL MDB_sym\\arrow_curr 608 112 R270
WINDOW 0 4 0 VTop 2
SYMATTR InstName rIa
SYMBOL bi 784 -352 M90
WINDOW 3 32 40 VTop 2
WINDOW 0 -32 40 VBottom 2
SYMATTR Value I = idt( I(D1), 0, T)
SYMATTR InstName QD1
SYMBOL MDB_sym\\arrow_curr 880 -352 M90
WINDOW 0 -4 0 VBottom 2
SYMATTR InstName iQd
SYMBOL bi 784 -464 M90
WINDOW 3 32 40 VTop 2
WINDOW 0 -32 40 VBottom 2
SYMATTR Value I = idt( I(Ca), 0, T)
SYMATTR InstName QCa
SYMBOL MDB_sym\\arrow_curr 880 -464 M90
WINDOW 0 -4 0 VBottom 2
SYMATTR InstName iQca
SYMBOL bi 784 -576 M90
WINDOW 3 32 40 VTop 2
WINDOW 0 -32 40 VBottom 2
SYMATTR Value I = idt( I(I_load), 0, T)
SYMATTR InstName Qa11
SYMBOL MDB_sym\\arrow_curr 880 -576 M90
WINDOW 0 -4 0 VBottom 2
SYMATTR InstName iQa
SYMBOL MDB_sym\\source-Vmarker 848 -48 R0
SYMATTR Value V={p}
SYMATTR InstName U1
SYMBOL MDB_sym\\source-Vmarker 848 -80 R0
SYMATTR Value V=1u
SYMATTR InstName U3
SYMBOL MDB_sym\\source-Imarker 848 -208 R0
SYMATTR Value I={-Ia}
SYMATTR InstName U2
SYMBOL MDB_sym\\arrow_curr 880 -208 R270
WINDOW 0 4 0 VTop 2
SYMATTR InstName Ia
SYMBOL MDB_sym\\source-Vmarker 848 -128 R0
SYMATTR Value V={L1}
SYMATTR InstName U4
SYMBOL MDB_sym\\source-Imarker 848 -240 R0
SYMATTR Value I={ILmax1}
SYMATTR InstName U5
SYMBOL MDB_sym\\arrow_curr 880 -240 R270
WINDOW 0 4 0 VTop 2
SYMATTR InstName ILmax1
SYMBOL MDB_sym\\arrow_curr 48 112 M90
WINDOW 0 -4 0 VBottom 2
SYMATTR InstName rIe
TEXT 320 -696 Left 1 !.meas TRAN  ILmax MAX   I(L1)\n.meas TRAN  ILmin MIN   I(L1)\n.meas TRAN  dIL   PARAM ILmax-ILmin\n.meas TRAN  ICmax MAX   I(Ca)\n.meas TRAN  ICmin MIN   I(Ca)\n \n.meas TRAN  t1    time  when I(Ca)=ICmax rise=last\n.meas TRAN  t01  time  when I(Ca)=0 rise=last\n.meas TRAN  t02  time  when I(Ca)=0 fall=last\n \n.meas TRAN  dtc2     PARAM t02-t01 \n.meas TRAN  A2       PARAM 1/2*dtc2*ICmax\n.meas TRAN charge PARAM 0+A2 \n.meas TRAN Vr_calc PARAM charge/{Ca}\n \n.meas TRAN Vr PP V(a) from {3*T} to {4*T*.999}\n.meas TRAN tcont TIME when I(L1)=0A rise=last
TEXT -56 -456 Left 2 !.param \n+ T = 10u\n+ t1 = p*T\n+ Ca = 470µ\n+ Cpar = 200e-12\n+ Vd0 = 0.5V\n+ Ve = 12V\n \n+ IL_diff = -280mA*0\n+ ILmax1 = Ve/20uH*t1\n;+ L1= Ve*t1/(( ILmax1-IL_diff))\n \n+ Ia = Iam\n+ Ri = 1u
TEXT 328 -264 Left 1 !.model SW1 SW(Ron=1m Roff=1Meg Vt=.5 Vh=-.4\n.model M1 SW(Ron=1m Roff=1Meg Vt=.5 Vh=-.4\n \n.model Dx D ( Is={.2A/exp(Vd0/26m)} n=1)\n.model Dx2 D(Ron=1m Roff=1T Vfwd={Vd0})
TEXT 376 368 Left 2 ;.param p = sqrt( 2*L1/T *(Va+Vd0) / ( (Ve-Va)*(Ve+Vd0) )* Ia )
TEXT -56 -560 Left 2 !.tran 0 {Tsim} {Tsim-2*T}\n.param Tsim = 25m\n.param DELAY={Tsim-T};
TEXT 800 80 Left 2 !.ic V(a) = -7
TEXT 1016 256 Left 2 !.param pf = (Vd0-Va) / (Ve+Vd0-Va)\n.param Qd =  (Ve*T**2)/(2*L1) *p*(1-p) \n.param Iaf = Qd/T
TEXT 336 -136 Left 2 ;.step param Ia list -.72 -1
TEXT 336 -104 Left 2 ;.step param Iam list -.63A -1A
TEXT 1024 -840 Left 2 ;A.2) \nIa wurde auf ca. -420mA abgeschätzt\n \nA.3) \nIL, Id, Ic, VL zeichnen. \np=0.3  L=20uH  Va= -7.5V       \n \nA.4) \nIa für kontinuierlichen Grenzbetrieb?\np=0.3  L=20uH  Va= -7.5V\n \n  \n \n \nL1 für kontinuierlichen Grenzbetrieb \nmit Ia=-1A?\n  \n \n \n \nA.5)\nBestimme p für Lückbetrieb  \nAnsatz:  Pe_avg = Pa_avg + Pd_avg
TEXT 1096 -576 Left 1 ;.param\n+ Iam = -T*Ve/(2*L1)*p*(1-p) \n+ L1 = 20uH  \n+ p = 0.3  \n+ Va = -7.5V
TEXT 1096 -408 Left 1 ;.param\n+ Iam = -1\n+ L1 = 12.6uH  \n+ p = 0.3  \n+ Va = -7.5V
TEXT 768 408 Left 2 ;PULSE(-.5A {Ia} {Tsim-100*T} {100*T})
TEXT 344 -64 Left 2 ;.step param L1 list 20uH 12.6uH
TEXT 1032 -200 Left 2 !;~~~~~~~~~~~~~~~~~~~~~~~~~\n;~~~~~ Avg measure commands ~~~~\n;~~~~~~~~~~~~~~~~~~~~~~~~~\n.meas TRAN ILon   AVG I(L1) from 0u to 3u\n.meas TRAN ILoff   AVG I(L1) from 3u to 10u\n.meas TRAN Ia       AVG I(I_load) form 3u to 10u\n.meas TRAN Pe  PARAM  ILon*V(e)\n.meas TRAN Pd  PARAM  ILoff*Vd0\n.meas TRAN Pa  PARAM  Ia*V(a)\n \n; ILon equals Ie | ILoff equals Id
TEXT 1024 184 Left 2 ;IL_avg = 1/T * int( i_Lon(t), 0, t1 )\nIL_avg = 1/T * (1/2 * )
TEXT 1040 80 Left 1 !.param\n+ Iam = -630mA\n+ L1 = 20uH  \n+ p = 0.3 \n+ Va = -7.5V
