Version 4
SHEET 1 948 1620
WIRE 128 1248 96 1248
WIRE 240 1248 208 1248
WIRE 320 1248 240 1248
WIRE 432 1248 400 1248
WIRE 240 1328 240 1248
WIRE 272 1328 240 1328
WIRE 368 1344 336 1344
WIRE 432 1344 432 1248
WIRE 432 1344 368 1344
WIRE 656 1344 624 1344
WIRE 704 1344 656 1344
WIRE 848 1344 816 1344
WIRE 896 1344 848 1344
WIRE 272 1360 240 1360
WIRE 240 1376 240 1360
WIRE 624 1376 624 1344
WIRE 816 1376 816 1344
WIRE 96 1392 96 1248
WIRE 240 1392 240 1376
FLAG 368 1344 out
FLAG 96 1472 0
FLAG 240 1472 0
FLAG 240 1376 in-
FLAG 96 1248 ein
FLAG 624 1456 0
FLAG 816 1456 0
FLAG 656 1344 Uein
FLAG 848 1344 Uaus
FLAG 240 1248 in+
SYMBOL EIT_Semiconductors\\op_3 304 1344 M180
WINDOW 123 -17 69 Invisible 2
WINDOW 3 -277 -257 Left 2
SYMATTR Value2 FT=10Meg SR=1000
SYMATTR Value Vp={Vopp} Vm={Vopm} Ilim=20m
SYMATTR InstName U3
SYMBOL res 416 1232 R90
WINDOW 0 7 56 VBottom 2
WINDOW 3 25 56 VTop 2
SYMATTR InstName R6
SYMATTR Value {R2}
SYMBOL res 224 1232 R90
WINDOW 0 7 56 VBottom 2
WINDOW 3 25 56 VTop 2
SYMATTR InstName R7
SYMATTR Value {R1}
SYMBOL source-V 96 1376 R0
WINDOW 3 -62 131 Left 2
WINDOW 123 0 0 Left 2
WINDOW 39 0 0 Left 2
SYMATTR Value PULSE(-10 10 0 50m 50m 1u)
SYMATTR InstName V5
SYMBOL source-V 240 1376 R0
WINDOW 123 0 0 Left 2
WINDOW 39 0 0 Left 2
SYMATTR InstName V6
SYMATTR Value {vo}
SYMBOL source-V 624 1360 R0
WINDOW 3 -62 131 Left 2
WINDOW 123 0 0 Left 2
WINDOW 39 0 0 Left 2
SYMATTR Value {-R1/R2*Vopm}
SYMATTR InstName V7
SYMBOL source-V 816 1360 R0
WINDOW 3 -62 131 Left 2
WINDOW 123 0 0 Left 2
WINDOW 39 0 0 Left 2
SYMATTR Value {-R1/R2*Vopp}
SYMATTR InstName V8
TEXT 72 1080 Left 2 !.param R1=20k\n.param R2=100k\n.param Vopm = -10V\n.param Vopp = 10V
TEXT 432 1136 Left 2 ;Uein={-R1/R2*Vopm}\nUaus={-R1/R2*Vopp}
TEXT 424 1080 Left 2 ;.step param vo list 0 2
TEXT 728 1112 Left 2 !.tran .1
TEXT 720 1192 Left 2 !.param vo=0
