Version 4
SHEET 1 880 680
WIRE 272 -672 160 -672
WIRE 288 -672 272 -672
WIRE 272 -640 272 -672
WIRE 160 -608 160 -672
WIRE 272 -528 272 -560
WIRE 160 -512 160 -528
WIRE 272 -416 272 -448
WIRE -96 -240 -144 -240
WIRE -32 -240 -96 -240
WIRE 32 -240 -32 -240
WIRE 64 -240 32 -240
WIRE -96 -192 -96 -240
WIRE 32 -192 32 -240
WIRE -240 -160 -272 -160
WIRE 192 -160 176 -160
WIRE 304 -160 272 -160
WIRE -96 -96 -96 -112
WIRE 176 -96 176 -160
WIRE 176 -96 -96 -96
WIRE 208 -96 176 -96
WIRE 304 -80 304 -160
WIRE 304 -80 272 -80
WIRE 336 -80 304 -80
WIRE 32 -64 32 -112
WIRE 176 -64 32 -64
WIRE 208 -64 176 -64
WIRE 176 -48 176 -64
WIRE -96 -16 -96 -96
WIRE 32 -16 32 -64
WIRE -336 16 -400 16
WIRE -400 32 -400 16
WIRE -160 32 -224 32
WIRE 112 32 96 32
WIRE 176 48 176 32
WIRE -96 112 -96 80
WIRE -32 112 -96 112
WIRE 32 112 32 80
WIRE 32 112 -32 112
WIRE -400 128 -400 112
WIRE -32 128 -32 112
WIRE -128 176 -224 176
WIRE -32 176 -32 160
WIRE -32 176 -48 176
WIRE -336 192 -400 192
WIRE -400 208 -400 192
WIRE -400 304 -400 288
WIRE 400 336 368 336
FLAG 112 32 0
FLAG -400 128 0
FLAG 176 48 0
FLAG 336 -80 out
FLAG -96 -96 A
FLAG 32 -64 B
FLAG -224 32 Vx
FLAG -32 -240 V+
FLAG 400 336 VT
FLAG -240 -160 V+
FLAG -224 176 Vy
FLAG -400 304 0
FLAG -336 192 Vy
FLAG -336 16 Vx
FLAG 272 -416 0
FLAG 160 -512 0
SYMBOL EIT_Semiconductors\\npn 96 -16 M0
SYMATTR InstName Q2
SYMATTR Value NPNx
SYMBOL EIT_Semiconductors\\npn -160 -16 R0
SYMATTR InstName Q1
SYMATTR Value NPNx
SYMBOL res -112 -208 R0
SYMATTR InstName R1
SYMATTR Value {Rc1}
SYMBOL res 16 -208 R0
SYMATTR InstName R2
SYMATTR Value {Rc2}
SYMBOL MDB_sym\\source-V -400 16 M0
WINDOW 123 0 0 Left 2
WINDOW 39 0 0 Left 2
SYMATTR InstName V1
SYMATTR Value SINE(0 5m 1k 1m)
SYMBOL res -144 192 R270
WINDOW 0 25 56 VTop 2
WINDOW 3 7 56 VBottom 2
SYMATTR InstName R5
SYMATTR Value {Ry}
SYMBOL EIT_Semiconductors\\op_3 240 -80 R0
WINDOW 123 -17 69 Invisible 2
WINDOW 3 -16 43 Invisible 2
SYMATTR Value Vp={Vp-2V} Vm={Vm+1.5V} Ilim=20m
SYMATTR InstName U1
SYMBOL res 176 -144 R270
WINDOW 0 25 56 VTop 2
WINDOW 3 7 56 VBottom 2
SYMATTR InstName R6
SYMATTR Value {Rb}
SYMBOL res 160 -64 R0
SYMATTR InstName R7
SYMATTR Value {Rb}
SYMBOL MDB_sym\\source-Vmarker -272 -160 R0
SYMATTR Value V={Vp}
SYMATTR InstName U2
SYMBOL MDB_sym\\source-Vmarker 368 336 R0
WINDOW 3 -20 1 Right 2
SYMATTR Value V={VT}
SYMATTR InstName U3
SYMBOL MDB_sym\\source-V -400 192 M0
WINDOW 123 0 0 Left 2
WINDOW 39 0 0 Left 2
SYMATTR InstName V2
SYMATTR Value {Vy}
SYMBOL MDB_sym\\arrow_curr -32 144 R0
SYMATTR InstName Ie
SYMBOL MDB_sym\\source-I 272 -448 R180
WINDOW 0 29 73 Left 2
WINDOW 3 29 17 Left 2
WINDOW 123 0 0 Left 2
WINDOW 39 0 0 Left 2
SYMATTR InstName I1
SYMATTR Value .1
SYMBOL ind 256 -656 R0
SYMATTR InstName L1
SYMATTR Value 100µ
SYMBOL MDB_sym\\source-V 160 -624 M0
WINDOW 123 0 0 Left 2
WINDOW 39 0 0 Left 2
SYMATTR InstName V3
SYMATTR Value 10
TEXT 280 48 Left 2 !.param Rb=1k\n.param Rc1=1k\n.param Rc2={Rc1}\n.param Ry=1k\n.param Vbe0 = .65\n.param I0=2m\n.param Ic0={I0/2}\n.param VT=26m\n.param Vp=10V Vm=0V\n.param Vy=-5V
TEXT -392 392 Left 2 !.model NPNx npn( Bf=500 Is={Ic0/exp(Vbe0/VT)} )
TEXT -288 360 Left 2 !.tran 4m
TEXT -392 -472 Left 2 ;Tietze Schenk 12. Auflage\nS.782 Prinzip Steilheitsmultiplizierer
TEXT -392 -384 Left 2 ;Für | Vy | >> Vbe gilt:  Ie~=-Vy/Ry\nVout~= Rb/Ry * Vx*Vy/( 2*V(VT) )
