Version 4
SHEET 1 880 680
WIRE 96 -32 32 -32
WIRE 96 -16 96 -32
WIRE 96 96 96 64
WIRE 192 96 96 96
WIRE 96 128 96 96
WIRE 192 128 192 96
WIRE 96 240 96 208
WIRE 192 240 192 192
WIRE 144 352 96 352
WIRE 288 352 224 352
WIRE 320 352 288 352
WIRE 320 384 320 352
WIRE 320 496 320 448
FLAG 96 240 0
FLAG 192 240 0
FLAG 192 96 a
FLAG 320 496 0
FLAG 288 352 b
SYMBOL res 80 -32 R0
SYMATTR InstName R1
SYMATTR Value {R1}
SYMBOL res 80 112 R0
SYMATTR InstName R2
SYMATTR Value {R2}
SYMBOL cap 176 128 R0
SYMATTR InstName C1
SYMATTR Value {C}
SYMBOL MDB_sym\\source-Vmarker 32 -32 R0
SYMATTR Value V={U0}
SYMATTR InstName U1
SYMBOL cap 304 384 R0
SYMATTR InstName C2
SYMATTR Value {C}
SYMBOL res 128 368 R270
WINDOW 0 25 56 VTop 2
WINDOW 3 7 56 VBottom 2
SYMATTR InstName R3
SYMATTR Value {R1*R2/(R1+R2)}
SYMBOL MDB_sym\\source-Vmarker 96 352 R0
SYMATTR Value V={U0*R2/(R1+R2)}
SYMATTR InstName U2
TEXT 256 -104 Left 2 !.param initial=1\n+ R1 = 1k\n+ R2 = {R1}\n+ C = 1u\n+ u0 = 5V\n+ uc0 = -2V
TEXT 330 192 Left 2 !.tran 5m
TEXT 256 72 Left 2 !.ic V(a)={uc0}
TEXT 336 320 Left 2 !.ic V(b)={uc0}
