Version 4
SHEET 1 880 680
WIRE -176 -80 -368 -80
WIRE -160 -80 -176 -80
WIRE -176 -32 -256 -32
WIRE -160 -32 -176 -32
WIRE 96 -32 -16 -32
WIRE -368 64 -368 -80
WIRE -256 64 -256 -32
WIRE -16 64 -16 -32
FLAG -368 144 0
FLAG -256 144 0
FLAG -16 144 0
FLAG -176 -32 v1
FLAG -176 -80 v2
SYMBOL source-V -256 48 R0
SYMATTR InstName V1
SYMATTR Value 1
SYMBOL Function-V -16 48 R0
SYMATTR InstName B1
SYMATTR Value V=V(v2)
SYMBOL Function-V -368 48 R0
WINDOW 3 -83 187 Left 2
SYMATTR InstName B2
SYMATTR Value V=((time/{period})-(int(time/{period}))<(time/{sweep})-(int(time/{sweep})))*5
TEXT -320 320 Left 2 !.param period=1m\n.param sweep=0.1
TEXT -468 366 Left 2 !.tran 1
TEXT -480 288 Left 2 ;V=((time/{period})-(int(time/{period}))<(time/{sweep})-(int(time/{sweep})))*5
