Version 4
SHEET 1 904 680
WIRE 48 80 0 80
WIRE 176 80 128 80
WIRE 224 80 176 80
WIRE 352 80 304 80
WIRE 416 80 352 80
WIRE 544 80 496 80
WIRE 720 80 544 80
WIRE 848 80 800 80
WIRE 176 144 176 80
WIRE 352 144 352 80
WIRE 368 144 352 144
WIRE 848 144 848 80
WIRE 544 160 544 80
WIRE 544 160 432 160
WIRE 0 176 0 80
WIRE 368 176 352 176
WIRE 0 304 0 256
WIRE 352 304 352 176
WIRE 848 304 848 208
WIRE 176 320 176 208
FLAG 0 304 0
FLAG 176 320 0
FLAG 352 304 0
FLAG 848 304 0
SYMBOL source-V 0 160 R0
WINDOW 123 0 0 Left 0
WINDOW 39 0 0 Left 0
SYMATTR InstName V1
SYMATTR Value AC 1
SYMBOL res 144 64 R90
WINDOW 0 7 56 VBottom 0
WINDOW 3 25 56 VTop 0
SYMATTR InstName R1
SYMATTR Value 1k
SYMBOL cap 160 144 R0
SYMATTR InstName C1
SYMATTR Value 10µ
SYMBOL cap 832 144 R0
SYMATTR InstName C2
SYMATTR Value 10µ
SYMBOL res 816 64 R90
WINDOW 0 7 56 VBottom 0
WINDOW 3 25 56 VTop 0
SYMATTR InstName R2
SYMATTR Value 10k
SYMBOL res 320 64 R90
WINDOW 0 7 56 VBottom 0
WINDOW 3 25 56 VTop 0
SYMATTR InstName R3
SYMATTR Value 10k
SYMBOL res 512 64 R90
WINDOW 0 7 56 VBottom 0
WINDOW 3 25 56 VTop 0
SYMATTR InstName R4
SYMATTR Value 20k
SYMBOL EIT_Semiconductors\\op_3 400 160 R0
SYMATTR InstName U1
