Version 4
SHEET 1 880 804
WIRE -240 -48 -288 -48
WIRE -64 -48 -112 -48
WIRE -32 -48 -64 -48
WIRE -288 -16 -288 -48
WIRE -288 -16 -336 -16
WIRE -240 -16 -288 -16
WIRE -288 16 -288 -16
WIRE -240 16 -288 16
WIRE -32 32 -48 32
WIRE 0 32 -32 32
WIRE 144 32 112 32
WIRE 160 32 144 32
WIRE -32 64 -48 64
WIRE 0 64 -32 64
WIRE 144 64 112 64
WIRE 160 64 144 64
WIRE -240 144 -288 144
WIRE -64 144 -112 144
WIRE -32 144 -64 144
WIRE -288 176 -288 144
WIRE -288 176 -384 176
WIRE -240 176 -288 176
WIRE -768 208 -848 208
WIRE -288 208 -288 176
WIRE -240 208 -288 208
WIRE -848 224 -848 208
WIRE -384 224 -384 176
WIRE -848 320 -848 304
WIRE -384 320 -384 304
WIRE -848 416 -848 400
FLAG -848 416 0
FLAG -768 208 Anwender
FLAG -64 -48 DC
FLAG -384 320 0
FLAG -64 144 UC
FLAG 144 64 UC!
FLAG 144 32 DC!
FLAG -32 32 DC
FLAG -32 64 UC
FLAG -336 -16 Anwender
SYMBOL MDB_sym\\source-V -848 304 R0
WINDOW 3 -122 176 Left 2
WINDOW 123 0 0 Left 2
WINDOW 39 0 0 Left 2
SYMATTR InstName V1
SYMATTR Value PULSE(0 {Vctrl} {delay} 10n 10n .3m 9.7m)
SYMBOL EIT_Digital\\JKFF -176 -64 R0
SYMATTR InstName U1
SYMBOL bv -384 208 R0
SYMATTR InstName B1
SYMATTR Value V=abs(V(anwender))
SYMBOL MDB_sym\\source-V -848 320 M180
WINDOW 3 -142 -143 Left 2
WINDOW 123 0 0 Left 2
WINDOW 39 0 0 Left 2
SYMATTR InstName V2
SYMATTR Value PULSE(0 {Vctrl} {4*delay} 10n 10n .3m 9.7m)
SYMBOL EIT_Digital\\JKFF -176 128 R0
SYMATTR InstName U2
SYMBOL EIT_Digital\\probe_dig 0 16 R0
SYMATTR Value T=0
SYMATTR InstName U3
SYMBOL EIT_Digital\\probe_dig 0 48 R0
SYMATTR Value T=1
SYMATTR InstName U4
TEXT -824 -16 Left 2 !.tran 30m
TEXT -840 24 Left 2 !.param eltako=1\n+ delay = 1m\n+ Vctrl = 24V\n+ vpwr$_digital = 10V
TEXT -224 -120 Left 2 ;Eltako DC
TEXT -232 80 Left 2 ;Eltako UC
