Version 4
SHEET 1 6588 2628
WIRE 1680 160 1664 160
WIRE 1696 160 1680 160
WIRE 1856 160 1840 160
WIRE 1872 160 1856 160
WIRE 1680 208 1664 208
WIRE 1696 208 1680 208
WIRE 1856 208 1840 208
WIRE 1872 208 1856 208
WIRE 656 352 624 352
WIRE 768 352 656 352
WIRE 896 352 768 352
WIRE 1040 352 896 352
WIRE 1168 352 1040 352
WIRE 1616 352 1584 352
WIRE 1744 352 1616 352
WIRE 1888 352 1744 352
WIRE 2000 352 1888 352
WIRE 2064 352 2000 352
WIRE 2192 352 2064 352
WIRE 768 416 768 352
WIRE 1040 416 1040 352
WIRE 1888 416 1888 352
WIRE 2064 416 2064 352
WIRE 1744 448 1744 352
WIRE 864 464 832 464
WIRE 976 464 864 464
WIRE 1968 464 1952 464
WIRE 2000 464 1968 464
WIRE 768 544 768 512
WIRE 864 544 864 464
WIRE 864 544 768 544
WIRE 1888 544 1888 512
WIRE 1968 544 1968 464
WIRE 1968 544 1888 544
WIRE 1168 560 1168 352
WIRE 2192 560 2192 352
WIRE 1040 608 1040 512
WIRE 1104 608 1040 608
WIRE 2064 608 2064 512
WIRE 2128 608 2064 608
WIRE 656 624 544 624
WIRE 976 624 656 624
WIRE 1600 672 1584 672
WIRE 1616 672 1600 672
WIRE 1952 672 1616 672
WIRE 768 704 768 544
WIRE 880 704 880 672
WIRE 1888 704 1888 544
WIRE 528 752 512 752
WIRE 640 752 608 752
WIRE 704 752 640 752
WIRE 976 752 976 624
WIRE 976 752 944 752
WIRE 1168 752 1168 656
WIRE 1184 752 1168 752
WIRE 1200 752 1184 752
WIRE 1360 752 1296 752
WIRE 1392 752 1360 752
WIRE 1744 752 1744 528
WIRE 1824 752 1744 752
WIRE 2192 752 2192 656
WIRE 2224 752 2192 752
WIRE 2240 752 2224 752
WIRE 2368 752 2336 752
WIRE 2400 752 2368 752
WIRE 1744 768 1744 752
WIRE 512 800 512 752
WIRE 1616 816 1584 816
WIRE 1680 816 1616 816
WIRE 1888 816 1888 800
WIRE 1952 816 1952 672
WIRE 1952 816 1888 816
WIRE 768 848 768 800
WIRE 880 848 880 800
WIRE 880 848 768 848
WIRE 512 912 512 880
WIRE 768 912 768 848
WIRE 880 912 880 848
WIRE 1040 912 1040 608
WIRE 1168 912 1168 752
WIRE 1888 912 1888 816
WIRE 2064 912 2064 608
WIRE 2192 912 2192 752
WIRE 656 1040 624 1040
WIRE 768 1040 768 992
WIRE 768 1040 656 1040
WIRE 880 1040 880 992
WIRE 880 1040 768 1040
WIRE 1040 1040 1040 992
WIRE 1040 1040 880 1040
WIRE 1168 1040 1168 992
WIRE 1168 1040 1040 1040
WIRE 1616 1040 1600 1040
WIRE 1744 1040 1744 864
WIRE 1744 1040 1616 1040
WIRE 1888 1040 1888 992
WIRE 1888 1040 1744 1040
WIRE 2000 1040 1888 1040
WIRE 2064 1040 2064 992
WIRE 2064 1040 2000 1040
WIRE 2192 1040 2192 992
WIRE 2192 1040 2064 1040
WIRE 720 1152 720 1136
WIRE 720 1184 720 1152
WIRE 1040 1216 1040 1184
WIRE 720 1280 720 1264
WIRE 544 1328 528 1328
WIRE 656 1328 624 1328
WIRE 1456 1328 1328 1328
WIRE 976 1344 944 1344
WIRE 1328 1376 1328 1328
WIRE 1456 1376 1456 1328
WIRE 1328 1488 1328 1456
WIRE 1456 1488 1456 1456
WIRE 720 1520 720 1376
WIRE 1040 1536 1040 1392
FLAG 896 352 V+
FLAG 880 1040 V-
FLAG 880 672 V+
FLAG 656 624 in-
FLAG 640 752 in+
FLAG 1184 752 col
FLAG 1360 752 out
FLAG 2000 352 V+
FLAG 2224 752 col2
FLAG 2368 752 out2
FLAG 1680 160 V+
FLAG 1680 208 V-
FLAG 1616 816 in2+
FLAG 2000 1040 V-
FLAG 1616 1040 V-
FLAG 1616 352 V+
FLAG 656 1040 V-
FLAG 1616 672 in2-
FLAG 656 352 V+
FLAG 1504 816 0
FLAG 1520 672 0
FLAG 544 624 0
FLAG 512 912 0
FLAG 1856 160 +5V+
FLAG 1856 208 -5V
FLAG 1040 1184 0
FLAG 1040 1536 0
FLAG 864 1344 V+
FLAG 1328 1488 0
FLAG 1456 1488 0
FLAG 720 1520 0
FLAG 528 1328 0
FLAG 720 1152 V+
SYMBOL EIT_Semiconductors\\npn 704 704 R0
SYMATTR InstName Q1
SYMATTR Value NPNx
SYMBOL EIT_Semiconductors\\npn 944 704 M0
SYMATTR InstName Q2
SYMATTR Value NPNx
SYMBOL EIT_Semiconductors\\pnp 832 512 R180
SYMATTR InstName Q3
SYMATTR Value PNPx
SYMBOL EIT_Semiconductors\\pnp 976 512 M180
SYMATTR InstName Q4
SYMATTR Value PNPx
SYMBOL EIT_Semiconductors\\npn 1104 560 R0
SYMATTR InstName Q5
SYMATTR Value NPNx
SYMBOL source-I 768 992 R180
WINDOW 0 29 73 Left 2
WINDOW 3 29 17 Left 2
WINDOW 123 0 0 Left 2
WINDOW 39 0 0 Left 2
SYMATTR InstName I1
SYMATTR Value {I0}
SYMBOL source-I 880 992 R180
WINDOW 0 29 73 Left 2
WINDOW 3 29 17 Left 2
WINDOW 123 0 0 Left 2
WINDOW 39 0 0 Left 2
SYMATTR InstName I2
SYMATTR Value {I0}
SYMBOL source-I 1040 992 R180
WINDOW 0 29 73 Left 2
WINDOW 3 29 17 Left 2
WINDOW 123 0 0 Left 2
WINDOW 39 0 0 Left 2
SYMATTR InstName I3
SYMATTR Value {I0}
SYMBOL source-I 1168 992 R180
WINDOW 0 29 73 Left 2
WINDOW 3 29 17 Left 2
WINDOW 123 0 0 Left 2
WINDOW 39 0 0 Left 2
SYMATTR InstName I4
SYMATTR Value 0.01m
SYMBOL EIT_Semiconductors\\npn 1824 704 R0
SYMATTR InstName Q6
SYMATTR Value NPNx
SYMBOL EIT_Semiconductors\\pnp 1952 512 R180
SYMATTR InstName Q8
SYMATTR Value PNPx
SYMBOL EIT_Semiconductors\\pnp 2000 512 M180
SYMATTR InstName Q9
SYMATTR Value PNPx
SYMBOL EIT_Semiconductors\\npn 2128 560 R0
SYMATTR InstName Q10
SYMATTR Value NPNx
SYMBOL source-I 1888 992 R180
WINDOW 0 29 73 Left 2
WINDOW 3 29 17 Left 2
WINDOW 123 0 0 Left 2
WINDOW 39 0 0 Left 2
SYMATTR InstName I5
SYMATTR Value {I0}
SYMBOL source-I 2064 992 R180
WINDOW 0 29 73 Left 2
WINDOW 3 29 17 Left 2
WINDOW 123 0 0 Left 2
WINDOW 39 0 0 Left 2
SYMATTR InstName I7
SYMATTR Value {I0}
SYMBOL source-I 2192 992 R180
WINDOW 0 29 73 Left 2
WINDOW 3 29 17 Left 2
WINDOW 123 0 0 Left 2
WINDOW 39 0 0 Left 2
SYMATTR InstName I8
SYMATTR Value {I0}
SYMBOL source-Vmarker 1664 160 R0
SYMATTR InstName U3
SYMBOL source-Vmarker 1664 208 R0
SYMATTR Value V=-5V
SYMATTR InstName U4
SYMBOL EIT_Semiconductors\\pnp 1680 864 M180
SYMATTR InstName Q7
SYMATTR Value PNPx
SYMBOL source-I 1744 528 R180
WINDOW 0 29 73 Left 2
WINDOW 3 29 17 Left 2
WINDOW 123 0 0 Left 2
WINDOW 39 0 0 Left 2
SYMATTR InstName I6
SYMATTR Value {I0}
SYMBOL res 1600 800 R90
WINDOW 0 0 56 VBottom 2
WINDOW 3 32 56 VTop 2
SYMATTR InstName R2
SYMATTR Value 1k
SYMBOL res 1616 656 R90
WINDOW 0 0 56 VBottom 2
WINDOW 3 32 56 VTop 2
SYMATTR InstName R1
SYMATTR Value 1k
SYMBOL source-V 512 784 R0
WINDOW 123 0 0 Left 2
WINDOW 39 0 0 Left 2
SYMATTR InstName V1
SYMATTR Value SINE(0 {.1*0} 1k)
SYMBOL res 512 736 M90
WINDOW 0 0 56 VBottom 2
WINDOW 3 32 56 VTop 2
SYMATTR InstName R3
SYMATTR Value 100
SYMBOL source-Vmarker 1840 160 R0
SYMATTR InstName U1
SYMBOL source-Vmarker 1840 208 R0
SYMATTR Value V=-5V
SYMATTR InstName U2
SYMBOL EIT_Semiconductors\\npn 976 1296 R0
SYMATTR InstName Q11
SYMATTR Value NPNx
SYMBOL source-I 1040 1296 R180
WINDOW 0 29 73 Left 2
WINDOW 3 29 17 Left 2
WINDOW 123 0 0 Left 2
WINDOW 39 0 0 Left 2
SYMATTR InstName I9
SYMATTR Value {I0}
SYMBOL res 960 1328 R90
WINDOW 0 0 56 VBottom 2
WINDOW 3 32 56 VTop 2
SYMATTR InstName R4
SYMATTR Value 1k
SYMBOL source-I 1328 1376 M0
WINDOW 0 29 73 Left 2
WINDOW 3 -77 153 Left 2
WINDOW 123 0 0 Left 2
WINDOW 39 0 0 Left 2
SYMATTR InstName Iss
SYMATTR Value {I0/exp(Ueb/VT)}
SYMBOL res 1440 1360 R0
SYMATTR InstName R5
SYMATTR Value 1
SYMBOL EIT_Semiconductors\\npn 656 1280 R0
SYMATTR InstName Q12
SYMATTR Value NPNx
SYMBOL source-I 624 1328 R90
WINDOW 0 -54 35 VRight 2
WINDOW 3 59 17 VRight 2
WINDOW 123 0 0 Left 2
WINDOW 39 0 0 Left 2
SYMATTR InstName I11
SYMATTR Value 5µ
SYMBOL res 704 1168 R0
SYMATTR InstName R6
SYMATTR Value 1µ
TEXT 1248 80 Left 2 !.param I0 = 1mA\n.param Ube = 0.65V\n.param Ueb = 0.6V\n.param beta = 350
TEXT 1736 304 Left 3 ;CV
TEXT 1792 304 Left 2 ;OpAmp Eingangsstufe
TEXT 744 296 Left 3 ;VV
TEXT 800 296 Left 2 ;OpAmp Eingangsstufe
TEXT 624 136 Left 2 !.model NPNx NPN (Is={I0/exp(Ube/VT)} Bf = {beta})\n.model PNPx PNP (Is={I0/exp(Ueb/VT)} Bf = {beta})
TEXT 1528 80 Left 2 !.param open = 1t\n.param close = 1u
TEXT 740 78 Left 2 !.tran 2m
TEXT 520 -48 Left 2 ;.model PNPx PNP(IS=3.83E-14 NF=1.008 ISE=1.22E-14 NE=1.528 BF=344.4 IKF=0.08039 VAF=21.11 NR=1.005 ISC=2.85E-13 NC=1.28 BR=14.84 IKR=0.047 VAR=32.02 RB=1 IRB=1.00E-06 RBM=1 RE=0.6202 RC=0.5713 XTB=0 EG=1.11 XTI=3 CJE=1.23E-11 VJE=0.6106 MJE=0.378 TF=5.60E-10 XTF=3.414 VTF=5.23 ITF=0.1483 PTF=0 CJC=1.08E-11 VJC=0.1022 MJC=0.3563 XCJC=0.6288 TR=1.00E-32 CJS=0 VJS=0.75 MJS=0.333 FC=0.8027 Vceo=45 Icrating=100m mfg=Philips)\n.model NPNx NPN(IS=2.39E-14 NF=1.008 ISE=3.545E-15 NE=1.541 BF=294.3 IKF=0.1357 VAF=63.2 NR=1.004 ISC=6.272E-14 NC=1.243 BR=7.946 IKR=0.1144 VAR=25.9 RB=1 IRB=1.00E-06 RBM=1 RE=0.4683 RC=0.85 XTB=0 EG=1.11 XTI=3 CJE=1.358E-11 VJE=0.65 MJE=0.3279 TF=4.391E-10 XTF=120 VTF=2.643 ITF=0.7495 PTF=0 CJC=3.728E-12 VJC=0.3997 MJC=0.2955 XCJC=0.6193 TR=1.00E-32 CJS=0 VJS=0.75 MJS=0.333 FC=0.9579 Vceo=45 Icrating=100m mfg=Philips)
TEXT 1296 1208 Left 2 ;.step param TEMP 25 80 2
TEXT 1936 104 Left 2 !.param boltz = 1.38e-23\n.param Theta = {273+TEMP}\n.param eq = 1.602e-19As\n.param VT={boltz*Theta/eq}
LINE Normal 1280 752 1232 752 2
LINE Normal 2320 752 2256 752 2
RECTANGLE Normal 1328 1088 688 272 2
RECTANGLE Normal 2304 1088 1664 272 2
