Version 4
SHEET 1 2680 680
WIRE 1824 -832 1792 -832
WIRE 1824 -768 1824 -832
WIRE 1824 -656 1824 -688
WIRE 1504 -624 1472 -624
WIRE 1648 -624 1504 -624
WIRE 1760 -608 1712 -608
WIRE 1648 -592 1616 -592
WIRE -400 -560 -448 -560
WIRE 176 -560 -400 -560
WIRE 288 -560 256 -560
WIRE 352 -560 288 -560
WIRE 1616 -544 1616 -592
WIRE 1824 -544 1824 -560
WIRE 1824 -544 1616 -544
WIRE -448 -528 -448 -560
WIRE 1824 -528 1824 -544
WIRE -144 -512 -224 -512
WIRE 128 -512 -144 -512
WIRE -224 -480 -224 -512
WIRE -448 -432 -448 -448
WIRE -144 -432 -144 -512
WIRE -96 -432 -144 -432
WIRE 16 -432 -16 -432
WIRE 1824 -400 1824 -448
WIRE -224 -384 -224 -400
WIRE 16 -384 16 -432
WIRE 128 -384 128 -512
WIRE 288 -384 288 -560
WIRE -144 -304 -144 -432
WIRE -144 -96 -144 -224
WIRE 16 -96 16 -128
WIRE 16 -96 -144 -96
WIRE 128 -96 128 -128
WIRE -144 0 -144 -96
WIRE 0 0 -144 0
WIRE 432 0 288 0
WIRE 528 0 432 0
WIRE 432 16 432 0
WIRE 528 16 528 0
WIRE -144 96 -144 0
WIRE 0 96 -144 96
WIRE 352 96 352 -560
WIRE 352 96 288 96
WIRE 352 112 352 96
WIRE 432 112 432 80
WIRE 528 112 528 96
WIRE 144 176 144 160
WIRE 352 208 352 192
FLAG 144 176 0
FLAG 352 208 0
FLAG 432 112 0
FLAG -448 -432 0
FLAG 528 0 OUT
FLAG -224 -384 0
FLAG 528 112 0
FLAG 128 -96 0
FLAG 1504 -624 pwl
FLAG -400 -560 pwl
FLAG 1824 -400 0
SYMBOL res 336 96 R0
SYMATTR InstName R1
SYMATTR Value 1K
SYMBOL voltage -448 -544 R0
WINDOW 123 0 0 Left 2
WINDOW 39 0 0 Left 2
SYMATTR InstName V1
SYMATTR Value PWL(0 0 1 5)
SYMBOL cap 416 16 R0
SYMATTR InstName C1
SYMATTR Value 10µ
SYMBOL LT3021 144 32 R0
SYMATTR InstName U1
SYMBOL voltage -224 -496 R0
WINDOW 123 0 0 Left 2
WINDOW 39 0 0 Left 2
SYMATTR InstName V2
SYMATTR Value 5
SYMBOL res -160 -320 R0
SYMATTR InstName R2
SYMATTR Value 1
SYMBOL LTC6101 144 -256 R270
SYMATTR InstName U2
SYMBOL res -112 -416 R270
WINDOW 0 32 56 VTop 2
WINDOW 3 0 56 VBottom 2
SYMATTR InstName R3
SYMATTR Value 2.5K
SYMBOL res 272 -576 R90
WINDOW 0 0 56 VBottom 2
WINDOW 3 32 56 VTop 2
SYMATTR InstName R4
SYMATTR Value 24K
SYMBOL res 512 0 R0
SYMATTR InstName R5
SYMATTR Value 1
SYMBOL EIT_Semiconductors\\op_3 1680 -608 M180
WINDOW 123 61 58 Right 2
WINDOW 3 52 87 Right 2
SYMATTR InstName U6
SYMATTR Value Vp=5 Vm=0 Ilim=20m
SYMBOL source-Vmarker 1792 -832 R0
SYMATTR Value V=10V
SYMATTR InstName U7
SYMBOL EIT_Semiconductors\\npn 1760 -656 R0
SYMATTR InstName Q1
SYMBOL res 1808 -544 R0
SYMATTR InstName R6
SYMATTR Value {R1}
SYMBOL res 1808 -784 R0
SYMATTR InstName RL
SYMATTR Value {RL}
TEXT 464 184 Left 2 !.tran 1
TEXT 88 -608 Bottom 2 ;LTC6101 - High Voltage, High-Side Current Sense Amplifier\nLT3021 - 500mA, Low Voltage, Very Low Dropout Linear Regulator\nVoltage Controlled Current Source\nInput: 0V to 5V     Output: 500mA to 0mA, 100mA/V
TEXT -560 216 Left 2 ;Notes:\n  If the simulation model is not found please update with the "Sync Release" command from the "Tools" menu.\n  It remains the customer's responsibility to verify proper and reliable operation in the actual application.\n  Component substitution and printed circuit board layout may significantly affect circuit performance or reliability.\n  Contact your local sales representative for assistance. This circuit is distributed to customers only for use with LTC parts.\n  Copyright © 2014 Linear Technology Inc. All rights reserved.
TEXT 1408 -400 Left 2 !.param RL = 1\n.param Uin =1V\n.param Iout = 50m\n.param R1 = {Uin/Iout}
