Version 4
SHEET 1 912 1348
WIRE -48 -128 -48 -160
WIRE -48 -48 -48 -80
WIRE -128 0 -128 -64
WIRE -112 0 -128 0
WIRE -48 128 -48 48
FLAG -48 128 0
FLAG -48 -240 0
FLAG -128 -144 0
SYMBOL EIT_Semiconductors\\npn -112 -48 R0
SYMATTR InstName Q1
SYMATTR Value BC547B_TEST
SYMBOL MDB_sym\\source-I -48 -160 R180
WINDOW 0 29 73 Left 2
WINDOW 3 29 17 Left 2
WINDOW 123 0 0 Left 2
WINDOW 39 0 0 Left 2
SYMATTR InstName I1
SYMATTR Value 0
SYMBOL crtl-I-I_INV -128 -160 M0
SYMATTR InstName U1
SYMATTR Value F=.1
TEXT 80 -256 Left 2 !.model Qnx npn (Is={I0/exp(Vbe0/26m)} Bf={beta_n} Rc={Rch/2} Re={Rch/2}) ;Vaf=80)\n.model Qpx pnp (Is={I0/exp(Veb0/26m)} Bf={beta_p} Rc={Rch/2} Re={Rch/2}) ;Vaf=80)
TEXT 136 -160 Left 2 !.param Uce_sat_test=1\n+ beta_n = 200\n+ beta_p = 100\n+ Vbe0 = 0.6V\n+ Veb0 = 0.6V\n+ Vce_sat = 0.1V\n+ I0 = 1m\n+ Rch = {Vce_sat/(10*I0)}\n+ Rch_bc547 = 1.318 ;{ 0.4683+0.85 }
TEXT 72 208 Left 2 !.step oct I1 1m 100m 10
TEXT -134 228 Left 2 !.op
TEXT 536 -152 Left 2 !.model BC547B_TEST npn (\n+ IS=2.39E-14\n+ RB=1\n+ RE=0.4683\n+ RC=0.85\n+ IRB=1.00E-06\n+ RBM=1\n+ NF=1.008\n+ ISE=3.545E-15\n+ NE=1.541\n+ BF=294.3\n+ IKF=0.1357\n+ VAF=63.2\n+ NR=1.004\n+ ISC=6.272E-14\n+ NC=1.243\n+ BR=7.946\n+ IKR=0.1144\n+ VAR=25.9\n+ XTB=0\n+ EG=1.11\n+ XTI=3\n+ CJE=1.358E-11\n+ VJE=0.65\n+ MJE=0.3279\n+ TF=4.391E-10\n+ XTF=120\n+ VTF=2.643\n+ ITF=0.7495\n+ PTF=0\n+ CJC=3.728E-12\n+ VJC=0.3997\n+ MJC=0.2955\n+ XCJC=0.6193\n+ TR=1.00E-32\n+ CJS=0\n+ VJS=0.75\n+ MJS=0.333\n+ FC=0.9579\n+ Vceo=45\n+ Icrating=100m\n+ mfg=Philips)
TEXT -264 352 Left 2 ;https://www.fairchildsemi.com/datasheets/BC/BC547.pdf\nFigure 4
