Version 4
SHEET 1 1104 1496
WIRE 128 -752 128 -784
WIRE 64 -704 -32 -704
WIRE -288 -576 -432 -576
WIRE -160 -576 -288 -576
WIRE -32 -576 -32 -704
WIRE -32 -576 -80 -576
WIRE 16 -576 -32 -576
WIRE 128 -576 128 -656
WIRE 128 -576 96 -576
WIRE 240 -576 128 -576
WIRE 288 -576 240 -576
WIRE -432 -560 -432 -576
WIRE 288 -560 288 -576
WIRE 128 -496 128 -576
WIRE -432 -448 -432 -480
WIRE -32 -448 -32 -576
WIRE 64 -448 -32 -448
WIRE 80 -448 64 -448
WIRE 288 -448 288 -480
WIRE 128 -368 128 -400
WIRE -496 -304 -496 -336
WIRE -400 -304 -400 -336
WIRE -496 -208 -496 -224
WIRE -448 -208 -496 -208
WIRE -400 -208 -400 -224
WIRE -400 -208 -448 -208
WIRE -448 -192 -448 -208
WIRE 176 -160 176 -192
WIRE 112 -112 16 -112
WIRE -288 0 -288 -576
WIRE -240 0 -288 0
WIRE -128 16 -176 16
WIRE 16 16 16 -112
WIRE 16 16 -48 16
WIRE 48 16 16 16
WIRE 176 16 176 -64
WIRE 176 16 128 16
WIRE 288 16 176 16
WIRE 368 16 288 16
WIRE 432 16 368 16
WIRE -240 32 -288 32
WIRE 176 96 176 16
WIRE 432 112 432 16
WIRE 16 144 16 16
WIRE 112 144 16 144
WIRE 176 224 176 192
WIRE -288 288 -288 32
WIRE 288 288 288 16
WIRE 288 288 -288 288
FLAG -448 -192 0
FLAG -400 -336 V-
FLAG -496 -336 V+
FLAG 128 -784 V+
FLAG 128 -368 V-
FLAG 288 -448 0
FLAG -432 -448 0
FLAG 432 192 0
FLAG 176 -192 V+
FLAG 176 224 V-
FLAG 368 16 Ua
FLAG 240 -576 Ua1
SYMBOL source-V -496 -320 R0
WINDOW 123 0 0 Left 0
WINDOW 39 0 0 Left 0
SYMATTR InstName V1
SYMATTR Value 25
SYMBOL source-V -400 -320 R0
WINDOW 123 0 0 Left 0
WINDOW 39 0 0 Left 0
SYMATTR InstName V2
SYMATTR Value -25
SYMBOL EIT_Semiconductors\\pnp 64 -400 M180
SYMATTR InstName Q3
SYMATTR Value mj2955_f3
SYMBOL EIT_Semiconductors\\npn 64 -752 R0
SYMATTR InstName Q4
SYMATTR Value 2N3055
SYMBOL res 272 -576 R0
SYMATTR InstName R6
SYMATTR Value 100
SYMBOL source-V -432 -576 R0
WINDOW 3 -218 96 Left 0
WINDOW 123 0 0 Left 0
WINDOW 39 0 0 Left 0
SYMATTR InstName V4
SYMATTR Value ""
SYMBOL EIT_Semiconductors\\pnp 112 192 M180
SYMATTR InstName Q5
SYMATTR Value mj2955_f3
SYMBOL EIT_Semiconductors\\npn 112 -160 R0
SYMATTR InstName Q6
SYMATTR Value 2N3055
SYMBOL res 448 208 R180
WINDOW 0 36 76 Left 0
WINDOW 3 36 40 Left 0
SYMATTR InstName R7
SYMATTR Value 100
SYMBOL EIT_Semiconductors\\op_3 -208 16 M180
WINDOW 123 -50 104 Left 0
WINDOW 3 -53 70 Left 0
SYMATTR InstName U2
SYMATTR Value Vp=20 Vm=-20 Ilim=20m
SYMBOL res -64 -592 R90
WINDOW 0 7 56 VBottom 0
WINDOW 3 25 56 VTop 0
SYMATTR InstName R8
SYMATTR Value 47
SYMBOL res 112 -592 R90
WINDOW 0 7 56 VBottom 0
WINDOW 3 25 56 VTop 0
SYMATTR InstName R5
SYMATTR Value 100
SYMBOL res 144 0 R90
WINDOW 0 7 56 VBottom 0
WINDOW 3 25 56 VTop 0
SYMATTR InstName R9
SYMATTR Value 100
SYMBOL res -32 0 R90
WINDOW 0 7 56 VBottom 0
WINDOW 3 25 56 VTop 0
SYMATTR InstName R10
SYMATTR Value 47
TEXT -364 -760 Left 0 !.dc V4 -20 20 0.01
TEXT -360 -800 Left 0 !.param fsin=10k
TEXT -528 -1016 Left 0 ;Übernahmeverzerrung \nDurch ClosedLoop mit OpAmp verringert sich die Ube der Leistungstransistoren gegenüber Ua\num den Faktor der Leerlauf- Verstärkung des OpAmps. Bei A0=10000 liegt die Basis- Emitter- Schwellspannung \nnur noch bei 700mV/10k=7uV. Dadurch Verschwindet die Übernahmeverzerrung weitgehend
RECTANGLE Normal 632 -880 -552 -1056 1
