Version 4
SHEET 1 880 1924
WIRE -80 -432 -192 -432
WIRE -32 -432 -80 -432
WIRE 0 -432 -32 -432
WIRE 80 -432 0 -432
WIRE 80 -400 80 -432
WIRE -80 -368 -80 -432
WIRE -192 -336 -192 -432
WIRE 0 -336 0 -432
WIRE 80 -304 80 -320
WIRE -192 -208 -192 -256
WIRE -80 -208 -80 -288
WIRE -80 -208 -192 -208
WIRE 0 -208 0 -272
WIRE 0 -208 -80 -208
WIRE 80 -208 80 -224
WIRE 80 -208 0 -208
WIRE -80 -192 -80 -208
WIRE -80 -128 -192 -128
WIRE -32 -128 -80 -128
WIRE 0 -128 -32 -128
WIRE 80 -128 0 -128
WIRE -80 -64 -80 -128
WIRE -192 -32 -192 -128
WIRE 0 -32 0 -128
WIRE 80 0 80 -128
WIRE -192 96 -192 48
WIRE -80 96 -80 16
WIRE -80 96 -192 96
WIRE 0 96 0 32
WIRE 0 96 -80 96
WIRE 80 96 80 80
WIRE 80 96 0 96
WIRE -80 112 -80 96
WIRE 240 176 -96 176
WIRE -96 224 -96 176
WIRE 240 224 240 176
WIRE 240 224 192 224
WIRE 288 224 240 224
WIRE 192 256 192 224
WIRE -176 272 -240 272
WIRE -144 272 -176 272
WIRE 16 272 -48 272
WIRE 144 272 64 272
WIRE 64 288 64 272
WIRE 16 304 16 272
WIRE -240 320 -240 272
WIRE -240 432 -240 400
WIRE 16 432 16 352
WIRE 64 432 64 368
WIRE 240 496 -96 496
WIRE 240 512 240 496
WIRE -96 544 -96 496
WIRE 240 544 240 512
WIRE 240 544 192 544
WIRE 288 544 240 544
WIRE -176 592 -176 272
WIRE -144 592 -176 592
WIRE 16 592 -48 592
WIRE 192 592 192 544
WIRE 192 592 64 592
WIRE 64 608 64 592
WIRE 16 624 16 592
WIRE 16 752 16 672
WIRE 64 752 64 688
WIRE 480 960 304 960
WIRE -224 1008 -352 1008
WIRE -160 1008 -224 1008
WIRE -32 1008 -160 1008
WIRE -224 1024 -224 1008
WIRE 304 1024 304 960
WIRE 368 1024 304 1024
WIRE 304 1040 304 1024
WIRE -272 1088 -288 1088
WIRE 256 1104 240 1104
WIRE 480 1104 480 960
WIRE 528 1104 480 1104
WIRE 560 1104 528 1104
WIRE -224 1120 -224 1104
WIRE -32 1136 -32 1008
WIRE 304 1136 304 1120
WIRE -352 1168 -352 1008
WIRE -160 1168 -160 1008
WIRE -160 1168 -176 1168
WIRE 480 1168 480 1104
WIRE 368 1184 368 1024
WIRE 368 1184 352 1184
WIRE 560 1200 560 1104
WIRE -288 1216 -288 1088
WIRE -224 1216 -224 1200
WIRE -224 1216 -288 1216
WIRE 240 1232 240 1104
WIRE 304 1232 304 1216
WIRE 304 1232 240 1232
WIRE -352 1280 -352 1248
WIRE -224 1280 -224 1216
WIRE -32 1280 -32 1216
WIRE 304 1296 304 1232
WIRE 480 1328 480 1248
WIRE 560 1328 560 1264
WIRE 560 1328 480 1328
WIRE 304 1408 304 1376
WIRE 400 1408 304 1408
WIRE 480 1408 480 1328
WIRE 480 1408 400 1408
WIRE 400 1456 400 1408
WIRE -176 1600 -176 1584
WIRE 0 1600 0 1584
WIRE -240 1760 -256 1760
WIRE -176 1760 -176 1680
WIRE -176 1760 -240 1760
WIRE -80 1760 -96 1760
WIRE 0 1760 0 1680
WIRE 0 1760 -80 1760
WIRE -176 1792 -176 1760
WIRE 0 1792 0 1760
WIRE -176 1888 -176 1856
WIRE 0 1888 0 1856
FLAG -32 -128 C2
FLAG -80 112 0
FLAG -32 -432 C
FLAG -80 -192 0
FLAG -240 432 0
FLAG 16 432 0
FLAG 64 432 0
FLAG 144 320 0
FLAG 192 336 0
FLAG 16 752 0
FLAG 64 752 0
FLAG 144 640 0
FLAG 192 656 0
FLAG 240 176 E2
FLAG 240 512 E3
FLAG -224 1280 0
FLAG -352 1280 0
FLAG -32 1280 0
FLAG 528 1104 C2
FLAG 400 1456 0
FLAG -176 1888 0
FLAG 0 1888 0
FLAG 0 1584 0
FLAG -176 1584 0
FLAG -240 1760 XTAL_param
FLAG -80 1760 crys_9_overton
SYMBOL res 64 -16 R0
SYMATTR InstName Rv1
SYMATTR Value {Rv}
SYMBOL ind -64 -80 M0
SYMATTR InstName L1
SYMATTR Value 100µ
SYMBOL cap 16 -32 M0
SYMATTR InstName C1
SYMATTR Value .25n
SYMBOL MDB_sym\\source-I -192 -32 M0
WINDOW 123 29 43 Left 2
WINDOW 39 0 0 Left 2
SYMATTR InstName I1
SYMATTR Value ""
SYMATTR Value2 AC 1
SYMBOL res 64 -320 R0
SYMATTR InstName Rv2
SYMATTR Value {Rv}
SYMBOL ind -64 -384 M0
SYMATTR InstName L2
SYMATTR Value 100µ
SYMBOL cap 16 -336 M0
SYMATTR InstName C2
SYMATTR Value .25n
SYMBOL MDB_sym\\negRes 80 -368 R0
SYMATTR InstName U1
SYMATTR Value2 R={Rneg}
SYMBOL MDB_sym\\source-I -192 -336 M0
WINDOW 123 29 43 Left 2
WINDOW 39 0 0 Left 2
SYMATTR InstName I2
SYMATTR Value ""
SYMATTR Value2 AC 1
SYMBOL e 64 272 R0
SYMATTR InstName E1
SYMATTR Value laplace=1/(s**2+s+1)
SYMBOL MDB_sym\\source-V -240 304 R0
WINDOW 3 -99 169 Left 2
WINDOW 123 28 107 Left 2
WINDOW 39 0 0 Left 2
SYMATTR InstName V1
SYMATTR Value PULSE(0 1 0 1n 1n 100)
SYMATTR Value2 AC 1
SYMBOL e 192 240 R0
SYMATTR InstName E2
SYMATTR Value laplace=.990/(s**2+s+1)
SYMBOL EIT_PLL\\Subtraction -96 272 M180
SYMATTR InstName U2
SYMBOL e 64 592 R0
SYMATTR InstName E3
SYMATTR Value laplace={k3/(s**2+s+1)}
SYMBOL EIT_PLL\\Subtraction -96 592 M180
SYMATTR InstName U3
SYMBOL EIT_Semiconductors\\pjf -176 1104 M0
SYMATTR InstName J1
SYMBOL EIT_Semiconductors\\njf -272 1024 R0
SYMATTR InstName J2
SYMBOL MDB_sym\\source-V -352 1152 R0
WINDOW 3 -99 169 Left 2
WINDOW 123 28 107 Left 2
WINDOW 39 0 0 Left 2
SYMATTR InstName V2
SYMATTR Value ""
SYMBOL MDB_sym\\negRes -32 1168 R0
SYMATTR InstName U4
SYMATTR Value2 R=-50k
SYMBOL EIT_Semiconductors\\pjf 352 1120 M0
SYMATTR InstName J3
SYMBOL EIT_Semiconductors\\njf 256 1040 R0
SYMATTR InstName J4
SYMBOL res 288 1280 R0
SYMATTR InstName R1
SYMATTR Value 1k
SYMBOL ind 496 1152 M0
SYMATTR InstName L3
SYMATTR Value 100µ
SYMBOL cap 576 1200 M0
SYMATTR InstName C3
SYMATTR Value .25n
SYMBOL SBORKA\\QUARTZ_CRYSTAL\\XTAL_param -192 1792 R0
SYMATTR InstName U5
SYMBOL SBORKA\\QUARTZ_CRYSTAL\\CRYSTAL_9_OVERTONE -16 1792 R0
SYMATTR InstName U6
SYMBOL MDB_sym\\source-I 0 1680 R180
WINDOW 0 29 73 Left 2
WINDOW 3 29 17 Left 2
WINDOW 123 29 -9 Left 2
WINDOW 39 0 0 Left 2
SYMATTR InstName I3
SYMATTR Value ""
SYMATTR Value2 AC 1
SYMBOL MDB_sym\\source-I -176 1680 R180
WINDOW 0 29 73 Left 2
WINDOW 3 29 17 Left 2
WINDOW 123 29 -9 Left 2
WINDOW 39 0 0 Left 2
SYMATTR InstName I4
SYMATTR Value ""
SYMATTR Value2 AC 1
TEXT 240 56 Left 2 ;.step param Rneg \n+ list -9 -11
TEXT 240 32 Left 2 ;.ic V(C,x)=1V
TEXT 240 -120 Left 2 !.options plotwinsize=0
TEXT 240 -144 Left 2 !.ac oct 10000 100k 100meg
TEXT 240 -72 Left 2 !;.step param Rneg list -10k -10k -100k\n.param Rneg =1k\n.param Rv = 10k\n;.step param Rv list 1k 10k 100k
TEXT -286 552 Left 2 ;.tran 1000
TEXT 264 736 Left 2 ;.step param k3 1 10 2
TEXT 576 968 Left 2 !.ic V(C2)=2V
TEXT 168 784 Left 2 !.param k3=1
