Version 4
SHEET 1 2456 1188
WIRE 160 0 96 0
WIRE 160 64 160 0
WIRE 656 64 656 48
WIRE 864 64 864 48
WIRE 656 160 656 144
WIRE 864 160 864 144
WIRE 160 192 160 144
WIRE 336 192 160 192
WIRE 352 192 336 192
WIRE 160 240 160 192
WIRE 656 272 656 240
WIRE 864 272 864 240
WIRE 352 304 352 192
WIRE 160 352 160 320
WIRE 224 352 160 352
WIRE 288 352 224 352
WIRE 160 400 160 352
WIRE 720 432 656 432
WIRE 736 432 720 432
WIRE 928 432 864 432
WIRE 944 432 928 432
WIRE 656 464 656 432
WIRE 864 464 864 432
WIRE 160 528 160 480
WIRE 352 528 352 400
WIRE 656 576 656 544
WIRE 864 576 864 544
FLAG 160 528 0
FLAG 352 528 0
FLAG 656 272 0
FLAG 656 48 0
FLAG 656 576 0
FLAG 656 432 Vz
FLAG 864 272 0
FLAG 864 48 0
FLAG 864 576 0
FLAG 864 432 Vzb
DATAFLAG 336 192 "round(1000*$)/1000"
DATAFLAG 224 352 "round(100*$)/100"
DATAFLAG 80 432 "round(100e3*I(R3))/100e3"
DATAFLAG 80 304 "round(100e3*I(R2))/100e3"
DATAFLAG 80 128 "round(100e3*I(R1))/100e3"
DATAFLAG 416 272 "round(100e3*Ic(Q1))/100e3"
DATAFLAG 752 192 "round(100e3*I(Ic1))/100e3"
DATAFLAG 720 432 "round(100*$)/100"
DATAFLAG 960 192 "round(100e3*I(Ic1))/100e3"
DATAFLAG 928 432 "round(100*$)/100"
SYMBOL res 144 48 R0
SYMATTR InstName R1
SYMATTR Value {Rc}
SYMBOL res 144 224 R0
SYMATTR InstName R2
SYMATTR Value {R1}
SYMBOL res 144 384 R0
SYMATTR InstName R3
SYMATTR Value {R2}
SYMBOL EIT_Semiconductors\\npn 288 304 R0
SYMATTR InstName Q1
SYMATTR Value NPNx
SYMBOL MDB_sym\\source-Vmarker 96 0 R0
SYMATTR Value V={Ve}
SYMATTR InstName U1
SYMBOL bi 656 160 R0
SYMATTR InstName Ic1
SYMATTR Value I={Ic1}
SYMBOL res 640 48 R0
SYMATTR InstName R4
SYMATTR Value 1
SYMBOL bv 656 448 R0
SYMATTR InstName B1
SYMATTR Value V={VzaS}
SYMBOL bi 864 160 R0
SYMATTR InstName Ic1B
SYMATTR Value I={Ic1B}
SYMBOL res 848 48 R0
SYMATTR InstName R5
SYMATTR Value 1
SYMBOL bv 864 448 R0
SYMATTR InstName B2
SYMATTR Value V={Vzbe}
TEXT 16 552 Left 2 ;.tran 1
TEXT -56 648 Left 2 !.model npnx npn (Is={Ic0/exp(Vbe0/26m)} Bf={beta})
TEXT 240 -384 Left 2 !.param MATLAB_PARAM=1\n+ Ve = 5V\n+ Rc = 1k\n+ R1 = 3513\n+ R2 = 4.7k\n+ Vbe0 = .65V\n+ Ic0 = 3.88mA\n+ beta = 200\n+ alpha ={ beta/(beta + 1) }\n+ Vzbe = { Ve*(1-1/(1+alpha*R1/Rc*(1/alpha-1))) - Vbe0*( Rc/R2- ( (Rc+R1)/R2+1 ) / ( 1+alpha*R1/Rc*(1/alpha-1)) ) }
TEXT 624 -432 Left 2 !.param Ic1 =   ( Ve-Vbe0/R2*(Rc+R1+R2) ) / (Rc-R2/beta+1/beta*(Rc+R1+R2) )\n.param Ic1B = ( Ve-Vbe0*( Rc/R2+R1/R2+1 ) ) / (Rc/alpha+R1*(1/alpha-1))\n.param Vza  = Ve-( Rc/R2*Vbe0+ (1+1/beta)*Rc *Ic1 )\n.param VzaS = (R1*R2*Ve + R2*Rc*Vbe0 + R1*Rc*Vbe0*beta + R2*Rc*Vbe0*beta)/(R2*(R1 + Rc + Rc*beta))\n \n.param Vzb= Ve*(1-1/(1+alpha*R1/Rc*(1/alpha-1))) - Vbe0*( Rc/R2- ( (Rc+R1)/R2+1 ) / ( 1+alpha*R1/Rc*(1/alpha-1)) )\n.param VzbS= (Vbe0*(R2 + R1*alpha))/R2 + (R1*(alpha - 1)*(R2*Vbe0 - R2*Ve + R1*Vbe0*alpha))/(R2*(R1 + Rc - R1*alpha))
TEXT 1200 32 Left 2 ;.param MATLAB_PARAM=0\n+ Ve = 5V\n+ Rc = 1k\n+ R1 = 2u\n+ R2 = 2m\n+ R3 = 2k\n+ R4 = 4.7meg\n+ failalNull = {betaFAULTnull/(beta + 1)}\n+ Vbe0 = 0.65V\n+ Vbe02 = .65V\n+ Vbe03 = 650mV\n+ Vbe04 = 650.mV\n+ Ic0 = 3.88mA\n+ Ic0test = 3.88m\n+ beta = 200\n+ alpha = {beta/(beta + 1)}\n+ alpha2 = {beta/(beta + 1)}\n+ failal = {betaFAULT/(beta + 1)}
TEXT 632 -696 Left 2 ;*********************************************************************************\nhttp://www.raffia.ch/?opv_und_transistor\n**********************************************************************************\n(B) Spannungsgegenkopplung mit R1 und R2\nDer T. stellt UCE so ein, dass der Spannungsabfall an R2 ? 0,7 V wird.\n UCE ? 0,7 * [(R1 / R2) + 1] falls R2 << re
TEXT 296 -32 Left 2 !.step param R2 100 10k 500
TEXT 304 32 Left 2 !.op
