Version 4
SHEET 1 880 680
WIRE -48 -144 -192 -144
WIRE 32 -144 -48 -144
WIRE 128 -144 32 -144
WIRE -256 -64 -304 -64
WIRE -208 -64 -256 -64
WIRE -48 -64 -48 -144
WIRE 32 -64 32 -144
WIRE 128 -64 128 -144
WIRE -304 -48 -304 -64
WIRE -192 -48 -192 -144
WIRE -208 -32 -208 -64
WIRE -304 48 -304 32
WIRE -48 64 -48 16
WIRE 32 64 32 16
WIRE 128 64 128 0
WIRE -192 80 -192 32
FLAG -304 48 0
FLAG -192 80 0
FLAG -256 -64 CTRL
FLAG 128 64 0
FLAG 32 64 0
FLAG -48 64 0
FLAG -48 -144 no
SYMBOL source-V -304 -64 M0
WINDOW 3 -84 155 Left 2
WINDOW 123 0 0 Left 2
WINDOW 39 0 0 Left 2
SYMATTR Value PULSE(-4.1 -10.01 10m 10m)
SYMATTR InstName V1
SYMBOL MDB_sym\\VoltageControlableResistor -208 -64 R0
SYMATTR InstName U1
SYMBOL res -64 -80 R0
SYMATTR InstName R1
SYMATTR Value 4k
SYMBOL ind 16 -80 R0
WINDOW 3 39 68 Left 2
SYMATTR Value 100µ
SYMATTR InstName L1
SYMBOL cap 112 -64 R0
WINDOW 3 24 61 Left 2
SYMATTR Value 100n IC=1
SYMATTR InstName C1
TEXT -296 208 Left 2 !.options plotwinsize=0
TEXT -530 226 Left 2 !.tran 100m
