Version 4
SHEET 1 1092 1188
WIRE -288 -640 -288 -656
WIRE -288 -624 -288 -640
WIRE -768 -528 -800 -528
WIRE -752 -528 -768 -528
WIRE -592 -528 -608 -528
WIRE -576 -528 -592 -528
WIRE -544 -528 -576 -528
WIRE -336 -480 -400 -480
WIRE -768 -448 -768 -528
WIRE -592 -448 -592 -528
WIRE -592 -448 -768 -448
WIRE 592 -416 592 -480
WIRE -400 -384 -400 -416
WIRE -288 -384 -288 -448
WIRE 176 -320 112 -320
WIRE 240 -320 176 -320
WIRE 592 -304 592 -336
WIRE 112 -272 112 -320
WIRE 240 -208 240 -320
WIRE -640 -176 -640 -240
WIRE 592 -176 592 -208
WIRE -272 -160 -336 -160
WIRE -208 -160 -272 -160
WIRE -160 -160 -208 -160
WIRE -32 -160 -80 -160
WIRE 0 -160 -32 -160
WIRE 80 -160 64 -160
WIRE 112 -160 112 -192
WIRE 112 -160 80 -160
WIRE 176 -160 112 -160
WIRE -336 -144 -336 -160
WIRE 112 -128 112 -160
WIRE -208 -80 -208 -160
WIRE -32 -64 -32 -160
WIRE 240 -64 240 -112
WIRE 592 -64 592 -96
WIRE -640 -48 -640 -96
WIRE -576 -48 -640 -48
WIRE -480 -48 -496 -48
WIRE -384 -48 -400 -48
WIRE -336 -48 -336 -80
WIRE -336 -48 -384 -48
WIRE 112 -32 112 -64
WIRE 240 -32 240 -64
WIRE 240 -32 112 -32
WIRE -640 -16 -640 -48
WIRE -336 -16 -336 -48
WIRE 112 -16 112 -32
WIRE 240 -16 240 -32
WIRE -640 96 -640 64
WIRE -336 96 -336 48
WIRE -208 96 -208 -16
WIRE -32 96 -32 16
WIRE 112 96 112 48
WIRE 240 96 240 64
WIRE -464 336 -576 336
WIRE -400 336 -464 336
WIRE -576 368 -576 336
WIRE 512 368 496 368
WIRE 528 368 512 368
WIRE 512 416 496 416
WIRE 528 416 512 416
WIRE -400 448 -400 336
WIRE 528 464 496 464
WIRE -720 496 -736 496
WIRE -672 496 -720 496
WIRE -576 496 -576 448
WIRE -576 496 -608 496
WIRE -464 496 -576 496
WIRE -400 560 -400 544
WIRE -576 576 -576 496
WIRE -400 576 -400 560
WIRE -576 688 -576 656
WIRE -400 688 -400 656
FLAG 240 96 0
FLAG 112 96 0
FLAG -384 -48 in
FLAG 176 -320 VCC
FLAG -576 -528 VCC
FLAG 240 -64 e
FLAG 592 -64 0
FLAG 448 -256 0
FLAG 512 368 Rb
FLAG 512 416 Re
FLAG 80 -160 b
FLAG -208 96 0
FLAG -32 96 0
FLAG -336 96 0
FLAG -272 -160 noHarmonic
FLAG -640 96 0
FLAG -640 -240 Vcc
FLAG -288 -384 0
FLAG -400 -384 0
FLAG -288 -640 Vcc
FLAG -400 688 0
FLAG -576 688 0
FLAG -464 336 VCC
FLAG -720 496 noHarmonic
FLAG -400 560 e2
SYMBOL res 224 -32 R0
SYMATTR InstName R1
SYMATTR Value {Re}
SYMBOL cap 96 -128 R0
SYMATTR InstName C1
SYMATTR Value 33p
SYMBOL cap 96 -16 R0
SYMATTR InstName C2
SYMATTR Value 100p
SYMBOL source-Vmarker -800 -528 M180
SYMATTR InstName U1
SYMATTR Value V={Vcc}
SYMBOL res 96 -288 R0
SYMATTR InstName R2
SYMATTR Value {Rb}
SYMBOL ind -176 -144 R270
WINDOW 0 32 56 VTop 2
WINDOW 3 5 56 VBottom 2
WINDOW 39 58 54 VTop 2
SYMATTR InstName L1
SYMATTR Value {Lo}
SYMATTR SpiceLine Rser=1.5
SYMBOL SBORKA\\BJT\\bfr92 176 -208 R0
WINDOW 38 51 34 Left 2
SYMATTR InstName U2
SYMBOL source-V -768 -528 M90
WINDOW 123 0 0 Left 2
WINDOW 39 0 0 Left 2
WINDOW 0 -45 43 VRight 2
WINDOW 3 43 27 VRight 2
SYMATTR InstName V2
SYMATTR Value -.8V
SYMBOL SBORKA\\BJT\\bfr92 528 -304 R0
WINDOW 38 51 34 Left 2
SYMATTR InstName U3
SYMBOL source-Vmarker 592 -480 M180
SYMATTR InstName U5
SYMATTR Value V=20V
SYMBOL source-I 528 -256 R90
WINDOW 0 -27 40 VBottom 2
WINDOW 3 27 40 VTop 2
WINDOW 123 0 0 Left 2
WINDOW 39 0 0 Left 2
SYMATTR InstName Ib
SYMATTR Value 0
SYMBOL res 576 -192 R0
SYMATTR InstName R3
SYMATTR Value 1µ
SYMBOL res 576 -432 R0
SYMATTR InstName R5
SYMATTR Value 1µ
SYMBOL source-Vmarker 496 368 M180
SYMATTR InstName U6
SYMATTR Value V={Rb}
SYMBOL source-Vmarker 496 416 M180
SYMATTR InstName U7
SYMATTR Value V={Re}
SYMBOL source-Vmarker 496 464 M180
SYMATTR InstName U8
SYMATTR Value V={Vcc}
SYMBOL diode -320 -144 M0
WINDOW 3 28 53 Left 2
SYMATTR Value MyVar
SYMATTR InstName D3
SYMBOL cap -224 -16 M180
WINDOW 0 24 56 Left 2
WINDOW 3 24 8 Left 2
SYMATTR InstName C3
SYMATTR Value 33p
SYMBOL cap 64 -176 R90
WINDOW 0 0 32 VBottom 2
WINDOW 3 32 32 VTop 2
SYMATTR InstName C4
SYMATTR Value 1n
SYMBOL res -48 -80 R0
SYMATTR InstName R4
SYMATTR Value 10k
SYMBOL diode -320 48 R180
WINDOW 0 24 64 Left 2
WINDOW 3 24 0 Left 2
SYMATTR InstName D2
SYMATTR Value MyVar
SYMBOL res -384 -64 R90
WINDOW 0 0 56 VBottom 2
WINDOW 3 32 56 VTop 2
SYMATTR InstName R6
SYMATTR Value 10k
SYMBOL res -656 -192 R0
SYMATTR InstName R8
SYMATTR Value 3.3k
SYMBOL res -656 -32 R0
SYMATTR InstName R9
SYMATTR Value 3.3k
SYMBOL njf -336 -544 R0
SYMATTR InstName J1
SYMBOL cap -416 -480 R0
SYMATTR InstName C5
SYMATTR Value 1n
SYMBOL res -304 -640 R0
SYMATTR InstName R11
SYMATTR Value 3.3k
SYMBOL source-V -592 -48 M90
WINDOW 123 0 0 Left 2
WINDOW 39 0 0 Left 2
SYMATTR InstName V4
SYMATTR Value {Umic}
SYMBOL res -416 560 R0
SYMATTR InstName R7
SYMATTR Value 500
SYMBOL SBORKA\\BJT\\bfr92 -464 448 R0
WINDOW 38 51 34 Left 2
SYMATTR InstName U4
SYMBOL res -592 352 R0
SYMATTR InstName R10
SYMATTR Value 1k
SYMBOL cap -608 480 R90
WINDOW 0 0 32 VBottom 2
WINDOW 3 32 32 VTop 2
SYMATTR InstName C6
SYMATTR Value 1n
SYMBOL res -592 560 R0
SYMATTR InstName R12
SYMATTR Value 10k
TEXT 392 712 Left 2 ;.tran 2.5u
TEXT -8 296 Left 2 !.param fa = 107.2Meg\n \n.param Vcc = 3V\n.param Ve0 = 1.5V\n.param Ic0 = 1.5mA\n.param Vbe0 = 0.6V\n.param B = 124\n.param A = B/(1+B)\n.param Re = {Ve0*A/Ic0}\n;.param Rb = {(Vcc-Vbe0-Ic0/A*Re)/(Ic0/B)}\n.param Rb = 11.7k\n;.param Rb = 10.7k\n;.param Re = 750\n;.param Cprob = 68p\n .param Cprob = 33p\n.param Umic = .25V\n \n \n.param Lo = 80n\n.param Co = 47n\n.param Cj0 = 5p
TEXT 392 672 Left 2 !.param Vv1=0
TEXT 512 -8 Left 2 ;hfe:\n124 @ 5mA
TEXT -88 -296 Left 2 ;.ic V(b) = 3.8V
TEXT 352 208 Left 2 ;.step param Ic0 1m 5m 1m
TEXT -1008 -656 Left 2 !.model MyVar D(Rs= 0.37 Cjo = 7.5p Vj=0.6 m=0.4)
TEXT 400 736 Left 2 !.tran 0 5u
TEXT 328 176 Left 2 ;.step param Cprob list 68p 46p 33p
TEXT -608 192 Left 2 !.step param Umic list -.25 .25
TEXT -992 -128 Left 2 !.options plotwinsize=0
