Version 4
SHEET 1 3080 680
WIRE 528 -848 -192 -848
WIRE 1120 -848 528 -848
WIRE 1184 -848 1120 -848
WIRE 1984 -848 1184 -848
WIRE 2096 -848 1984 -848
WIRE 2256 -848 2096 -848
WIRE 2432 -848 2320 -848
WIRE 2608 -848 2496 -848
WIRE 2704 -848 2608 -848
WIRE 2848 -848 2704 -848
WIRE 2704 -832 2704 -848
WIRE 2848 -832 2848 -848
WIRE 2096 -816 2096 -848
WIRE 2256 -816 2256 -848
WIRE 2320 -816 2320 -848
WIRE 1184 -752 1184 -848
WIRE 2704 -736 2704 -768
WIRE 2848 -736 2848 -752
WIRE 2096 -704 2096 -752
WIRE 2320 -704 2320 -736
WIRE 1984 -656 1984 -848
WIRE 1296 -640 1280 -640
WIRE 1936 -640 1744 -640
WIRE 1184 -560 1184 -672
WIRE 1296 -560 1184 -560
WIRE 864 -480 688 -480
WIRE 1296 -480 944 -480
WIRE 1792 -480 1744 -480
WIRE 1936 -480 1936 -640
WIRE 1936 -480 1872 -480
WIRE -192 -448 -192 -848
WIRE 528 -448 528 -848
WIRE 2256 -448 2256 -736
WIRE 2400 -448 2256 -448
WIRE 1120 -400 1120 -848
WIRE 1296 -400 1120 -400
WIRE 1984 -400 1984 -576
WIRE 1984 -400 1744 -400
WIRE 2016 -400 1984 -400
WIRE 2096 -400 2080 -400
WIRE 2256 -400 2256 -448
WIRE 1296 -320 1184 -320
WIRE 2208 -320 1744 -320
WIRE 2400 -288 2400 -448
WIRE 2096 -256 2016 -256
WIRE 2256 -256 2256 -304
WIRE 2256 -256 2176 -256
WIRE 1296 -240 1280 -240
WIRE 1792 -240 1744 -240
WIRE 2256 -224 2256 -256
WIRE 1296 -160 1152 -160
WIRE 1792 -160 1744 -160
WIRE 1888 -160 1856 -160
WIRE 2608 -128 2608 -848
WIRE 2256 -112 2256 -144
WIRE 2400 -112 2400 -224
WIRE 1184 -80 1184 -320
WIRE 2016 -80 2016 -256
WIRE 2016 -80 1184 -80
WIRE 1152 -32 1152 -160
WIRE 2608 -32 2608 -48
WIRE 2608 -32 1152 -32
WIRE 2608 -16 2608 -32
WIRE -192 0 -192 -368
WIRE 48 0 -192 0
WIRE 208 0 112 0
WIRE 528 0 528 -384
WIRE 528 0 272 0
WIRE 688 0 688 -480
WIRE 688 0 528 0
WIRE 1936 0 1936 -480
WIRE 1936 0 688 0
WIRE 2608 80 2608 64
FLAG 1792 -240 0
FLAG 1280 -640 0
FLAG 2256 -112 0
FLAG 2096 -704 0
FLAG 2320 -704 0
FLAG 2704 -736 0
FLAG 2096 -400 0
FLAG 2848 -736 0
FLAG 2608 80 0
FLAG 2848 -848 OUT
FLAG 1280 -240 0
FLAG 1888 -160 0
FLAG 2400 -112 0
FLAG -192 -848 IN
SYMBOL LTC4267 1520 -448 R180
SYMATTR InstName U1
SYMBOL nmos 2208 -400 R0
SYMATTR InstName M1
SYMATTR Value Si3440DV
SYMBOL res 2240 -240 R0
SYMATTR InstName R5
SYMATTR Value 0.1
SYMBOL cap 2080 -816 R0
SYMATTR InstName C2
SYMATTR Value 5µ
SYMATTR Value2 Rser=100m
SYMATTR SpiceLine Rser=100m
SYMBOL ind2 2240 -832 R0
WINDOW 0 1 28 Right 2
WINDOW 3 -2 70 Right 2
SYMATTR InstName Lpri
SYMATTR Value 150µ
SYMATTR Type ind
SYMATTR SpiceLine Rser=0.1
SYMBOL ind2 2336 -720 R180
WINDOW 0 -2 73 Right 2
WINDOW 3 -5 43 Right 2
SYMATTR InstName Lsec
SYMATTR Value 5µ
SYMATTR Type ind
SYMATTR SpiceLine Rser=10m
SYMBOL schottky 2432 -832 R270
WINDOW 0 32 32 VTop 2
WINDOW 3 0 32 VBottom 2
SYMATTR InstName D3
SYMATTR Value MBR745
SYMATTR Description Diode
SYMATTR Type diode
SYMBOL cap 2688 -832 R0
SYMATTR InstName C3
SYMATTR Value 320µ
SYMATTR SpiceLine Rser=10m
SYMBOL voltage -192 -464 R0
WINDOW 3 35 57 Left 2
WINDOW 123 19 95 Left 2
SYMATTR Value PWL(0 0 10m 6 250m 6 260m 5 500m 5
SYMATTR Value2 505m 17.5 515m 17.5 516m 57 547m 57 548m 0)
SYMATTR InstName VPSE
SYMBOL res 1168 -768 R0
SYMATTR InstName R1
SYMATTR Value 100K
SYMBOL cap 512 -448 R0
WINDOW 39 24 84 Left 2
SYMATTR SpiceLine Rser=10m
SYMATTR InstName C5
SYMATTR Value .1µ
SYMBOL res 2192 -272 R90
WINDOW 0 0 56 VBottom 2
WINDOW 3 32 56 VTop 2
SYMATTR InstName R4
SYMATTR Value 4.99K
SYMBOL res 1888 -496 R90
WINDOW 0 0 56 VBottom 2
WINDOW 3 32 56 VTop 2
SYMATTR InstName R6
SYMATTR Value 30.9
SYMBOL res 1968 -672 R0
SYMATTR InstName R7
SYMATTR Value 10K
SYMBOL cap 2080 -416 R90
WINDOW 0 0 32 VBottom 2
WINDOW 3 32 32 VTop 2
SYMATTR InstName C4
SYMATTR Value 4.7µ
SYMBOL res 2832 -848 R0
SYMATTR InstName R8
SYMATTR Value 2
SYMBOL res 2592 -144 R0
SYMATTR InstName R9
SYMATTR Value 3.16K
SYMBOL res 2592 -32 R0
SYMATTR InstName R10
SYMATTR Value 1K
SYMBOL voltage 960 -480 R90
WINDOW 3 32 56 VTop 2
WINDOW 123 74 56 VTop 2
WINDOW 39 53 56 VTop 2
WINDOW 0 -32 56 VBottom 2
SYMATTR Value PULSE(0 3.1 541m 1u 1u 4m 8m 1)
SYMATTR InstName V1
SYMBOL cap 2384 -288 R0
WINDOW 3 39 37 Left 2
WINDOW 39 21 67 Left 2
SYMATTR Value 68p
SYMATTR SpiceLine Rser=280
SYMATTR InstName C1
SYMBOL cap 1856 -176 R90
WINDOW 0 0 32 VBottom 2
WINDOW 3 32 32 VTop 2
WINDOW 39 53 32 VTop 2
SYMATTR InstName C6
SYMATTR Value 22n
SYMATTR SpiceLine Rser=26.7K
SYMBOL schottky 272 -16 R90
WINDOW 0 0 32 VBottom 2
WINDOW 3 32 32 VTop 2
SYMATTR InstName D4
SYMATTR Value MBRS1100
SYMATTR Description Diode
SYMATTR Type diode
SYMBOL schottky 112 -16 R90
WINDOW 0 0 32 VBottom 2
WINDOW 3 32 32 VTop 2
SYMATTR InstName D1
SYMATTR Value MBRS1100
SYMATTR Description Diode
SYMATTR Type diode
TEXT 1816 24 Left 2 !.tran  548m
TEXT 2288 -856 Bottom 2 !K1 Lpri Lsec 0.97
TEXT 160 -48 Bottom 2 ;Diode Bridge
TEXT 2704 -848 Bottom 2 ;3.3V @ 1.5A
