Version 4
SHEET 1 3300 680
WIRE 1296 -688 192 -688
WIRE 192 -560 192 -688
WIRE 256 -560 192 -560
WIRE 608 -560 560 -560
WIRE 832 -560 736 -560
WIRE 976 -560 832 -560
WIRE 1216 -560 1168 -560
WIRE 1216 -544 1216 -560
WIRE 256 -528 192 -528
WIRE 384 -528 320 -528
WIRE 848 -528 736 -528
WIRE 976 -528 848 -528
WIRE 608 -512 560 -512
WIRE 1152 -512 1088 -512
WIRE 864 -496 736 -496
WIRE 976 -496 864 -496
WIRE 384 -480 384 -528
WIRE 608 -480 384 -480
WIRE 1152 -480 1152 -512
WIRE 1200 -480 1152 -480
WIRE 1296 -480 1296 -688
WIRE 1296 -480 1200 -480
WIRE 880 -464 736 -464
WIRE 976 -464 880 -464
WIRE 608 -448 416 -448
WIRE 1152 -448 1152 -480
WIRE 976 -432 896 -432
WIRE 608 -400 560 -400
WIRE 784 -400 736 -400
WIRE 976 -400 912 -400
WIRE 976 -368 928 -368
WIRE 416 -336 416 -448
WIRE 976 -336 944 -336
WIRE 416 -304 416 -336
WIRE 656 -304 416 -304
WIRE 976 -304 720 -304
WIRE 784 -208 784 -400
WIRE 784 -208 448 -208
WIRE 832 -208 832 -560
WIRE 976 -208 832 -208
WIRE 1136 -208 1088 -208
WIRE 1168 -208 1136 -208
WIRE 192 -192 192 -528
WIRE 192 -192 -80 -192
WIRE 848 -176 848 -528
WIRE 976 -176 848 -176
WIRE 1136 -176 1088 -176
WIRE 1168 -176 1136 -176
WIRE -80 -160 -80 -192
WIRE 864 -144 864 -496
WIRE 976 -144 864 -144
WIRE 1136 -144 1088 -144
WIRE 1168 -144 1136 -144
WIRE 880 -112 880 -464
WIRE 976 -112 880 -112
WIRE 1136 -112 1088 -112
WIRE 1168 -112 1136 -112
WIRE 608 -80 560 -80
WIRE 896 -80 896 -432
WIRE 896 -80 736 -80
WIRE 976 -80 896 -80
WIRE 1136 -80 1088 -80
WIRE 1168 -80 1136 -80
WIRE -80 -64 -80 -80
WIRE 912 -48 912 -400
WIRE 912 -48 736 -48
WIRE 976 -48 912 -48
WIRE 1136 -48 1088 -48
WIRE 1152 -48 1136 -48
WIRE 448 -32 448 -208
WIRE 608 -32 448 -32
WIRE 928 -16 928 -368
WIRE 928 -16 736 -16
WIRE 976 -16 928 -16
WIRE 1136 -16 1088 -16
WIRE 1152 -16 1136 -16
WIRE 384 0 384 -480
WIRE 608 0 384 0
WIRE 944 16 944 -336
WIRE 944 16 736 16
WIRE 976 16 944 16
WIRE 1136 16 1088 16
WIRE 1152 16 1136 16
WIRE 416 32 416 -304
WIRE 416 32 -80 32
WIRE 608 32 416 32
WIRE -80 64 -80 32
WIRE 608 80 560 80
WIRE 816 80 736 80
WIRE -80 192 -80 144
FLAG -80 192 0
FLAG -80 -64 0
FLAG 0 0 conversion_clock
FLAG 1152 -368 0
FLAG 1216 -544 0
FLAG 1200 -480 vout
FLAG 1136 -208 D0_
FLAG 1136 -176 D1_
FLAG 1136 -144 D2_
FLAG 1136 -112 D3_
FLAG 1136 -80 D4_
FLAG 1136 -48 D5_
FLAG 1136 -16 D6_
FLAG 1136 16 D7_
SYMBOL Source-V -80 48 R0
WINDOW 123 0 0 Left 0
WINDOW 39 0 0 Left 0
SYMATTR InstName Vclk
SYMATTR Value PULSE(0 5 1u 1n 1n {T/2} {T})
SYMBOL Source-V -80 -176 R0
WINDOW 3 26 -21 Bottom 0
WINDOW 123 0 0 Left 0
WINDOW 39 0 0 Left 0
SYMATTR Value 3
SYMATTR InstName Vin
SYMBOL res 1136 -464 R0
SYMATTR InstName R1
SYMATTR Value 1k
SYMBOL Source-I 1088 -560 R270
WINDOW 0 27 40 VTop 0
WINDOW 3 -27 40 VBottom 0
WINDOW 123 0 0 Left 0
WINDOW 39 0 0 Left 0
SYMATTR InstName I1
SYMATTR Value 5m
SYMBOL EIT_Digital\\converter-dac-8bit 976 -560 R0
SYMATTR InstName U10
SYMBOL EIT_Digital\\PROBE_dig 976 -224 R0
SYMATTR Value T=0
SYMATTR InstName U3
SYMBOL EIT_Digital\\PROBE_dig 976 -192 R0
SYMATTR Value T=1
SYMATTR InstName U4
SYMBOL EIT_Digital\\PROBE_dig 976 -160 R0
SYMATTR Value T=2
SYMATTR InstName U5
SYMBOL EIT_Digital\\PROBE_dig 976 -128 R0
SYMATTR Value T=3
SYMATTR InstName U6
SYMBOL EIT_Digital\\PROBE_dig 976 -96 R0
SYMATTR Value T=4
SYMATTR InstName U7
SYMBOL EIT_Digital\\PROBE_dig 976 -64 R0
SYMATTR Value T=5
SYMATTR InstName U8
SYMBOL EIT_Digital\\PROBE_dig 976 -32 R0
SYMATTR Value T=6
SYMATTR InstName U9
SYMBOL EIT_Digital\\PROBE_dig 976 0 R0
SYMATTR Value T=7
SYMATTR InstName U11
SYMBOL EIT_Digital\\PROBE_dig 416 -352 R0
SYMATTR Value T=-2
SYMATTR InstName U2
SYMBOL EIT_Digital\\Bin_up_down_counter 608 -560 R0
SYMATTR InstName U1
SYMBOL EIT_Digital\\Bin_up_down_counter 608 -80 R0
SYMATTR InstName U14
SYMBOL EIT_Digital\\schmitt-trigger-dif 272 -544 R0
SYMATTR InstName U15
SYMATTR Value TD=1ns
SYMATTR Value2 VH=0.001V
SYMBOL EIT_Digital\\level-low 560 -560 R0
SYMATTR InstName U12
SYMBOL EIT_Digital\\level-low 560 -80 R0
SYMATTR InstName U13
SYMBOL EIT_Digital\\level-low 560 -400 R0
SYMATTR InstName U16
SYMBOL EIT_Digital\\level-low 560 80 R0
SYMATTR InstName U17
SYMBOL EIT_Digital\\level-high 560 -512 R0
SYMATTR InstName U18
SYMBOL EIT_Digital\\BUFFER 672 -304 R0
SYMATTR InstName U19
SYMATTR Value TD={T/4}
TEXT -96 -456 Left 0 !.param vpwr$_digital=5
TEXT -96 -568 Left 0 ;ADC 8 Bit\nwith up/down counter
TEXT -96 -400 Left 0 !.tran 300u
TEXT -96 -424 Left 0 !.param T=1us
