Version 4
SHEET 1 1376 1288
WIRE -16 -784 -32 -784
WIRE -512 -624 -544 -624
WIRE -544 -608 -544 -624
WIRE -1152 -592 -1152 -608
WIRE -1232 -576 -1264 -576
WIRE -512 -576 -512 -624
WIRE -400 -576 -432 -576
WIRE -336 -576 -368 -576
WIRE -240 -576 -336 -576
WIRE -208 -576 -240 -576
WIRE -336 -560 -336 -576
WIRE 320 -560 256 -560
WIRE 480 -560 400 -560
WIRE 560 -560 480 -560
WIRE 656 -560 560 -560
WIRE 688 -560 656 -560
WIRE 800 -560 768 -560
WIRE 864 -560 800 -560
WIRE 912 -560 864 -560
WIRE 560 -544 560 -560
WIRE 800 -544 800 -560
WIRE -1232 -528 -1248 -528
WIRE 480 -528 480 -560
WIRE 912 -528 912 -560
WIRE 656 -512 656 -560
WIRE -1248 -496 -1248 -528
WIRE 560 -496 560 -512
WIRE -336 -480 -336 -496
WIRE 784 -480 768 -480
WIRE 800 -480 800 -512
WIRE 800 -480 784 -480
WIRE -1024 -464 -1024 -496
WIRE -992 -464 -1024 -464
WIRE -896 -448 -928 -448
WIRE 192 -448 160 -448
WIRE 224 -448 224 -464
WIRE 224 -448 192 -448
WIRE 304 -448 288 -448
WIRE 336 -448 336 -496
WIRE 336 -448 304 -448
WIRE -1152 -432 -1152 -512
WIRE -1024 -432 -1152 -432
WIRE -992 -432 -1024 -432
WIRE 192 -432 192 -448
WIRE -1152 -416 -1152 -432
WIRE 480 -400 480 -464
WIRE 560 -400 560 -432
WIRE 656 -400 656 -432
WIRE 800 -400 800 -416
WIRE 912 -400 912 -448
WIRE -208 -384 -208 -576
WIRE -192 -384 -208 -384
WIRE -128 -384 -144 -384
WIRE -1024 -352 -1024 -432
WIRE -1008 -352 -1024 -352
WIRE -896 -352 -896 -448
WIRE -896 -352 -928 -352
WIRE -1152 -336 -1152 -352
WIRE -464 -320 -480 -320
WIRE -240 -320 -384 -320
WIRE -192 -320 -240 -320
WIRE -128 -320 -128 -384
WIRE -128 -320 -144 -320
WIRE -80 -320 -128 -320
WIRE -416 -160 -448 -160
WIRE -432 -112 -448 -112
WIRE -368 -112 -384 -112
WIRE -432 -64 -512 -64
WIRE -368 -64 -368 -112
WIRE -368 -64 -384 -64
WIRE 160 64 144 64
WIRE 288 64 240 64
WIRE -752 128 -816 128
WIRE -816 208 -816 128
WIRE -800 208 -816 208
WIRE -704 208 -720 208
WIRE -672 208 -704 208
WIRE -528 208 -592 208
WIRE -432 272 -432 240
WIRE -400 272 -432 272
WIRE -704 288 -704 208
WIRE -656 288 -704 288
WIRE -336 288 -352 288
WIRE -240 288 -336 288
WIRE -208 288 -240 288
WIRE -528 304 -528 208
WIRE -528 304 -592 304
WIRE -448 304 -528 304
WIRE -400 304 -448 304
WIRE -656 320 -736 320
FLAG 800 -400 0
FLAG 480 -400 0
FLAG 912 -400 0
FLAG 864 -560 a
FLAG 560 -560 s
FLAG 384 -496 0
FLAG 192 -352 0
FLAG 192 -448 crtl
FLAG -112 -784 0
FLAG 784 -480 ca
FLAG 560 -400 0
FLAG 656 -400 0
FLAG -336 -480 0
FLAG -416 -160 soll
IOPIN -416 -160 Out
FLAG -240 -576 Ve1
FLAG -240 -320 Ve2
FLAG -80 -320 V+
IOPIN -80 -320 BiDir
FLAG -368 320 0
FLAG -432 240 saw
IOPIN -432 240 In
FLAG -752 128 out
IOPIN -752 128 In
FLAG -448 304 Cs
FLAG -240 288 pwm
FLAG -736 320 soll
IOPIN -736 320 In
FLAG -1248 -496 0
FLAG -1264 -576 V+
IOPIN -1264 -576 BiDir
FLAG -1152 -336 0
FLAG -1152 -608 0
FLAG -960 -416 0
FLAG 144 64 0
FLAG 288 64 saw
IOPIN 288 64 Out
FLAG -592 112 0
FLAG -544 112 0
FLAG -528 112 0
FLAG 256 -560 V+
IOPIN 256 -560 BiDir
FLAG 304 -448 crtl
SYMBOL ind 672 -544 R270
WINDOW 0 30 56 VTop 2
WINDOW 3 6 56 VBottom 2
SYMATTR InstName L1
SYMATTR Value 20µ
SYMBOL cap 784 -480 R0
SYMATTR InstName C1
SYMATTR Value 7.3µ
SYMBOL schottky 496 -464 R180
WINDOW 0 24 72 Left 2
WINDOW 3 24 0 Left 2
SYMATTR InstName D1
SYMATTR Value dx
SYMATTR Description Diode
SYMATTR Type diode
SYMBOL res 896 -544 R0
SYMATTR InstName RL
SYMATTR Value 33
SYMBOL crtl-V-S 304 -560 R270
WINDOW 0 -19 -8 VRight 2
WINDOW 3 27 37 VRight 2
SYMATTR InstName S1
SYMATTR Value swx
SYMBOL source-V 192 -448 R0
WINDOW 0 32 49 Left 2
WINDOW 123 0 0 Left 2
WINDOW 39 0 0 Left 2
WINDOW 3 -45 136 Left 2
SYMATTR InstName V2
SYMATTR Value PULSE(0 2.5 0 1p 1p {pw*T} {T})
SYMBOL source-V -16 -784 R90
WINDOW 123 0 0 Left 2
WINDOW 39 0 0 Left 2
WINDOW 0 -22 -8 VRight 2
WINDOW 3 -47 -25 VRight 2
SYMATTR InstName V3
SYMATTR Value SINE(0 1 1meg)
SYMBOL cap 544 -496 R0
SYMATTR InstName C2
SYMATTR Value 100p
SYMBOL res 640 -528 R0
SYMATTR InstName R3
SYMATTR Value 10k
SYMBOL source-Vmarker -544 -608 R270
SYMATTR Value V={Vin}
SYMATTR InstName U1
SYMBOL MDB_sym\\isoR -384 -576 R270
WINDOW 0 4 0 VTop 2
WINDOW 3 -28 -1 VTop 2
SYMATTR InstName Rq1
SYMATTR Value .1
SYMBOL source-V -416 -576 R90
WINDOW 3 124 -132 VRight 2
WINDOW 123 0 0 Left 2
WINDOW 39 0 0 Left 2
WINDOW 0 -45 23 VRight 2
SYMATTR Value PULSE(0 {Vline} 10m 1n 1n 1)
SYMATTR InstName V_line1
SYMBOL cap -352 -560 R0
WINDOW 3 27 57 Left 2
SYMATTR InstName C3
SYMATTR Value 220µ
SYMBOL source-Vmarker -480 -320 R0
SYMATTR Value V={Vin}
SYMATTR InstName U2
SYMBOL source-V -368 -320 R90
WINDOW 3 46 -81 VRight 2
WINDOW 123 0 0 Left 2
WINDOW 39 0 0 Left 2
WINDOW 0 -45 23 VRight 2
SYMATTR Value PULSE(0 {Vline} 10m 1n 1n 1)
SYMATTR InstName V_line2
SYMBOL MDB_sym\\jumper -160 -384 R0
SYMATTR InstName X1
SYMBOL MDB_sym\\source-Vmarker -448 -160 R0
SYMATTR Value V={Vsoll}
SYMATTR InstName U3
SYMBOL source-Vmarker -448 -112 R0
SYMATTR Value V={uSaw}
SYMATTR InstName U4
SYMBOL MDB_sym\\jumper -400 -176 R0
WINDOW 0 -7 50 Invisible 2
SYMATTR InstName X2
SYMBOL MDB_sym\\jumperSetable -192 288 M0
SYMATTR InstName U5
SYMBOL EIT_Semiconductors\\comp_oc -368 288 R0
WINDOW 0 1 -28 Left 2
WINDOW 3 9 26 Invisible 2
WINDOW 38 -43 62 Left 2
SYMATTR InstName U6
SYMBOL EIT_Semiconductors\\op_3 -624 304 R0
WINDOW 0 -5 34 Left 2
WINDOW 123 -17 69 Invisible 2
WINDOW 3 -16 43 Invisible 2
SYMATTR InstName U7
SYMATTR Value Vp={Vcc*.98} Vm={Vee*.98} Ilim=20m
SYMBOL res -688 224 R270
WINDOW 0 25 56 VTop 2
WINDOW 3 7 56 VBottom 2
SYMATTR InstName R4
SYMATTR Value {R2}
SYMBOL res -816 224 R270
WINDOW 0 25 56 VTop 2
WINDOW 3 7 56 VBottom 2
SYMATTR InstName R5
SYMATTR Value {R1}
SYMBOL cap -592 128 R270
WINDOW 0 32 32 VTop 2
WINDOW 3 0 32 VBottom 2
SYMATTR InstName C4
SYMATTR Value {Cc}
SYMBOL crtl-V-I_INV -1152 -608 R0
WINDOW 0 26 78 Left 2
WINDOW 3 30 40 Left 2
SYMATTR InstName G1
SYMATTR Value 0
SYMBOL cap -1168 -416 R0
WINDOW 0 37 20 Left 2
WINDOW 3 32 59 Left 2
SYMATTR InstName C5
SYMATTR Value {Csaw}
SYMBOL EIT_Semiconductors\\comp_oc -960 -448 R0
WINDOW 0 1 -28 Left 2
WINDOW 3 79 14 Left 2
WINDOW 38 -32 -57 Left 2
WINDOW 123 78 37 Left 2
SYMATTR InstName U8
SYMBOL source-Vmarker -1024 -496 R90
SYMATTR Value V={uSaw}
SYMATTR InstName U9
SYMBOL res -1024 -368 M90
WINDOW 0 7 56 VBottom 2
WINDOW 3 25 56 VTop 2
SYMATTR InstName R6
SYMATTR Value 10
SYMBOL voltage 256 64 R90
WINDOW 123 74 56 VTop 2
WINDOW 39 53 56 VTop 2
WINDOW 0 -32 56 VBottom 2
WINDOW 3 32 56 VTop 2
SYMATTR InstName V4
SYMATTR Value PULSE({lSaw} {uSaw} 0 {T} 1n 1n {T+2n})
SYMBOL MDB_sym\\isoR 800 -528 R0
WINDOW 0 13 -13 Left 2
WINDOW 3 10 13 Left 2
SYMATTR InstName R7
SYMATTR Value 0.3
SYMBOL MDB_sym\\isoR 560 -528 R0
WINDOW 0 9 -10 Left 2
WINDOW 3 -32 -10 Left 2
SYMATTR InstName R8
SYMATTR Value 10
TEXT -672 -904 Left 2 !.model swx SW(Ron=.1m Roff=1Meg Vt=1.25 Vh=-.5)\n.model dx D(Ron=.1m Roff=1Meg Vfwd=.4)
TEXT -672 -848 Left 2 ;RL=11,33Ohm für IAmin=291mA
TEXT 224 -288 Left 2 !; .param p=0.6852 T=10u   ;kontinuierlich\n; .param p=0.4015 T=10u     ;Lückbetrieb bei IA=100mA
TEXT -608 -664 Left 2 ;Supply_1
TEXT -560 -496 Left 2 !.ic V(in) = {.7*Vin}
TEXT -608 -416 Left 2 ;Supply_2
TEXT 208 168 Left 2 !.param Buck = 1\n+ Ca = 47uF\n+ Ia = 1.5A\n+ L1 = 20uH\n+ Rs = 0.1\n+ uSaw = 10V\n+ lSaw = -10V\n+ Vd0 = .5V\n \n+ Vin = 20V\n+ Vline = 3V
TEXT 472 80 Left 2 !.tran 20m
TEXT 632 168 Left 2 !.param opamp=1\n+ Vcc = 10V\n+ Vee = -10V
TEXT 448 176 Left 2 !.param ctrl=1\n+ Vsoll = 5.5V\n+ kp = 15\n+ ki = 0.01\n \n+ pw = {t1/T}\n+ t1 = 0.75*T\n+ T = 15us \n+ t2 = T;\n \n+ R1 = 4k7\n+ R2 = {R1*kp}\n+ Cc = 1/(ki*R1)\n \n+Csaw = 1n
TEXT -424 -792 Center 2 ;_Buckconverter\n_........................\nhttp://www.ti.com.cn/cn/lit/ds/symlink/tps40077.pdf
TEXT 744 -632 Left 2 !.ic V(Ca) = 3.3V
RECTANGLE Normal -272 -432 -608 -648 2
RECTANGLE Normal -272 -240 -608 -400 2
