Version 4
SHEET 1 880 680
WIRE 176 -256 112 -256
WIRE 192 -256 176 -256
WIRE 176 -208 112 -208
WIRE 192 -208 176 -208
WIRE 80 96 32 96
WIRE 192 96 160 96
WIRE 272 96 256 96
WIRE 272 176 272 96
WIRE 272 176 144 176
WIRE 32 224 32 96
WIRE 80 224 32 224
WIRE 272 256 272 176
WIRE 144 304 144 272
WIRE 208 304 144 304
WIRE 144 352 144 304
WIRE 144 480 144 432
WIRE 208 480 144 480
WIRE 272 480 272 352
WIRE 272 480 208 480
FLAG 176 -256 V+
FLAG 176 -208 V-
FLAG 208 480 V-
SYMBOL res 64 112 R270
WINDOW 0 25 56 VTop 2
WINDOW 3 7 56 VBottom 2
SYMATTR InstName J1
SYMATTR Value {J5}
SYMBOL cap 256 80 R90
WINDOW 0 0 32 VBottom 2
WINDOW 3 32 32 VTop 2
SYMATTR InstName Ccomp1
SYMATTR Value 33p
SYMBOL EIT_Semiconductors\\npn 208 256 R0
SYMATTR InstName Q1
SYMATTR Value CA3046
SYMBOL EIT_Semiconductors\\npn 80 176 R0
SYMATTR InstName Q2
SYMATTR Value CA3046
SYMBOL res 128 336 R0
SYMATTR InstName RE1
SYMATTR Value 22k
SYMBOL source-Vmarker 112 -256 R0
SYMATTR Value V=10V
SYMATTR InstName U2
SYMBOL source-Vmarker 112 -208 R0
SYMATTR Value V=-10V
SYMATTR InstName U3
TEXT 40 512 Left 2 ;Darlington- Stufe
TEXT 264 -264 Left 2 !.param J5 = 1u
RECTANGLE Normal 384 544 -16 48 2
