Version 4
SHEET 1 1608 1116
WIRE 320 464 208 464
WIRE 400 464 320 464
WIRE 512 464 400 464
WIRE 560 464 512 464
WIRE 672 464 640 464
WIRE 704 464 672 464
WIRE 816 464 768 464
WIRE 880 464 816 464
WIRE 992 464 960 464
WIRE 1104 464 992 464
WIRE 1216 464 1104 464
WIRE 816 496 816 464
WIRE 992 512 992 464
WIRE 512 560 512 464
WIRE 672 560 672 464
WIRE 208 592 208 464
WIRE 816 592 816 560
WIRE 1216 592 1216 464
WIRE 320 608 320 464
WIRE 1104 608 1104 464
WIRE 400 656 400 464
WIRE 432 656 400 656
WIRE 992 656 992 592
WIRE 992 656 752 656
WIRE 992 672 992 656
WIRE 208 784 208 672
WIRE 320 784 320 672
WIRE 592 784 592 752
WIRE 992 784 992 752
WIRE 1104 784 1104 672
WIRE 1216 784 1216 672
FLAG 320 784 0
FLAG 208 784 0
FLAG 592 784 0
FLAG 1216 784 0
FLAG 1104 784 0
FLAG 992 784 0
FLAG 816 592 0
FLAG 1216 464 OUT
FLAG 208 464 IN
SYMBOL SCHOTTKY 800 496 R0
SYMATTR InstName D1
SYMATTR Value CMDSH2-3
SYMBOL RES 976 656 R0
SYMATTR InstName R1
SYMATTR Value 24.9K
SYMBOL RES 976 496 R0
SYMATTR InstName R2
SYMATTR Value 150K
SYMBOL VOLTAGE 208 576 R0
WINDOW 123 0 0 Left 2
SYMATTR InstName V1
SYMATTR Value 25
SYMATTR SpiceLine Rser=0.1
SYMBOL ind2 976 480 M270
WINDOW 0 32 56 VTop 2
WINDOW 3 4 56 VBottom 2
SYMATTR InstName L1
SYMATTR Value 47µ
SYMATTR SpiceLine Rser=1.3 Rpar=10K
SYMBOL ind2 544 480 R270
WINDOW 0 32 56 VTop 2
WINDOW 3 4 56 VBottom 2
SYMATTR InstName L2
SYMATTR Value 47µ
SYMATTR SpiceLine Rser=1.3 Rpar=10K
SYMBOL LOAD2 1216 672 M180
WINDOW 0 25 84 Left 2
WINDOW 3 17 -16 Left 2
WINDOW 123 0 0 Left 2
WINDOW 39 17 -44 Left 2
SYMATTR InstName I1
SYMATTR Value 50m
SYMATTR SpiceLine load
SYMBOL PowerProducts\\LT1617-1 592 656 R0
SYMATTR InstName U1
SYMBOL cap 1088 608 R0
SYMATTR InstName C1
SYMATTR Value 4.7µ
SYMATTR SpiceLine V=16 Rser=10m
SYMBOL cap 768 448 R90
WINDOW 0 0 32 VBottom 2
WINDOW 3 32 32 VTop 2
SYMATTR InstName C2
SYMATTR Value .22µ
SYMATTR SpiceLine V=25 Rser=10m
SYMBOL cap 304 608 R0
SYMATTR InstName C3
SYMATTR Value 4.7µ
SYMATTR SpiceLine V=6.3 Rser=10m
TEXT 744 784 Left 2 !.tran 10m startup
TEXT 128 824 Left 2 ;Note:\n  If the simulation model is not found please update with the "Sync Release" command from the "Tools" menu.\n  It remains the customer's responsibility to verify proper and reliable operation in the actual application.\n  Component substitution and printed circuit board layout may significantly affect circuit performance or reliability.\n  Contact your local sales representative for assistance. This circuit is distributed to customers only for use with LTC parts.\n  Copyright © 2006 Linear Technology Inc. All rights reserved.
TEXT 720 408 Bottom 2 ;LT1617-1 -   0.4us Off-Time µPower Inverting DC/DC Converters\nInput: 1.2V     Output: -9V @ 2.5mA
