Version 4
SHEET 1 1216 680
WIRE -64 -48 -144 -48
WIRE 16 -48 -64 -48
WIRE 112 -48 16 -48
WIRE 128 -48 112 -48
WIRE 224 -48 208 -48
WIRE 432 -48 336 -48
WIRE 608 -48 432 -48
WIRE 720 -48 608 -48
WIRE 960 -48 720 -48
WIRE 432 -16 432 -48
WIRE 608 -16 608 -48
WIRE -64 0 -64 -48
WIRE 720 16 720 -48
WIRE 960 16 960 -48
WIRE -144 32 -144 -48
WIRE 112 32 112 -48
WIRE 224 32 224 -48
WIRE 336 32 336 -48
WIRE 608 80 608 48
WIRE -64 96 -64 64
WIRE 432 96 432 64
WIRE 432 96 384 96
WIRE 464 96 432 96
WIRE 560 96 544 96
WIRE 16 112 16 -48
WIRE 64 112 16 112
WIRE -144 128 -144 112
WIRE 432 176 384 176
WIRE 720 208 720 96
WIRE 960 208 960 96
WIRE 16 240 16 112
WIRE 64 240 16 240
WIRE 432 256 384 256
WIRE 432 288 432 256
WIRE 544 288 432 288
WIRE 544 304 544 288
WIRE 112 336 112 320
WIRE 784 336 768 336
WIRE 784 368 784 336
WIRE 432 384 432 368
WIRE 544 384 544 368
WIRE 544 384 432 384
WIRE 16 400 16 240
WIRE 128 400 16 400
WIRE 224 400 224 320
WIRE 224 400 208 400
WIRE 240 400 224 400
WIRE 336 400 336 320
WIRE 336 400 304 400
WIRE 352 400 336 400
WIRE 432 400 432 384
WIRE 432 400 416 400
WIRE 432 416 432 400
WIRE 576 416 432 416
WIRE 592 416 576 416
WIRE 592 448 592 416
WIRE 784 480 784 448
WIRE 432 512 432 480
WIRE 592 560 592 528
FLAG 112 336 0
FLAG -144 128 0
FLAG -64 96 0
FLAG 560 96 0
FLAG 608 80 0
FLAG 432 512 0
FLAG 576 416 out2
FLAG 608 -48 out1
FLAG 720 208 0
FLAG 592 560 0
FLAG 960 208 0
FLAG 768 336 out2
FLAG 784 480 0
SYMBOL PowerProducts\\LT3463A 224 176 R0
SYMATTR InstName U1
SYMBOL ind 112 -32 R270
WINDOW 0 32 56 VTop 2
WINDOW 3 5 56 VBottom 2
SYMATTR InstName L1
SYMATTR Value 39µ
SYMBOL ind 112 416 R270
WINDOW 0 32 56 VTop 2
WINDOW 3 5 56 VBottom 2
SYMATTR InstName L2
SYMATTR Value 22µ
SYMBOL voltage -144 16 R0
WINDOW 123 0 0 Left 2
WINDOW 39 24 122 Left 2
SYMATTR InstName V1
SYMATTR Value 12V
SYMATTR SpiceLine Rser=1
SYMBOL cap -80 0 R0
SYMATTR InstName C1
SYMATTR Value 100µ
SYMBOL res 416 -32 R0
SYMATTR InstName R1
SYMATTR Value 1meg
SYMBOL res 560 80 R90
WINDOW 0 0 56 VBottom 2
WINDOW 3 32 56 VTop 2
SYMATTR InstName R2
SYMATTR Value 90.9k
SYMBOL cap 592 -16 R0
SYMATTR InstName C2
SYMATTR Value 47µ
SYMATTR SpiceLine Rser=0.1
SYMBOL res 416 160 R0
SYMATTR InstName R3
SYMATTR Value {R3}
SYMBOL res 416 272 R0
SYMATTR InstName R4
SYMATTR Value {R4}
SYMBOL cap 528 304 R0
SYMATTR InstName C3
SYMATTR Value 10p
SYMBOL cap 304 384 R90
WINDOW 0 0 32 VBottom 2
WINDOW 3 32 32 VTop 2
SYMATTR InstName C4
SYMATTR Value 1µ
SYMBOL schottky 416 384 R90
WINDOW 0 0 32 VBottom 2
WINDOW 3 32 32 VTop 2
SYMATTR InstName D1
SYMATTR Value MBRS140
SYMATTR Description Diode
SYMATTR Type diode
SYMBOL cap 416 416 R0
SYMATTR InstName C5
SYMATTR Value 22µ
SYMATTR SpiceLine Rser=0.1
SYMBOL LOAD2 720 16 R0
WINDOW 0 25 84 Left 2
WINDOW 3 17 -16 Left 2
WINDOW 123 0 0 Left 2
WINDOW 39 17 -44 Left 2
SYMATTR InstName I1
SYMATTR Value PULSE(0 50m 0.5m)
SYMATTR SpiceLine load
SYMBOL LOAD2 592 448 M0
WINDOW 0 25 84 Left 2
WINDOW 3 18 155 Left 2
WINDOW 123 0 0 Left 2
WINDOW 39 17 -44 Left 2
SYMATTR InstName I2
SYMATTR Value PULSE(0 -100m 1.5m)
SYMATTR SpiceLine load
SYMBOL LOAD2 960 16 R0
WINDOW 0 25 84 Left 2
WINDOW 3 17 -16 Left 2
WINDOW 123 0 0 Left 2
WINDOW 39 17 -44 Left 2
SYMATTR InstName I3
SYMATTR Value PULSE(0 50m 0.8m)
SYMATTR SpiceLine load
TEXT -178 536 Left 2 !.tran 4m startup
TEXT 864 288 Left 2 !.param R4=680k\n.param Vout2=-19V\n.param R3=-1.25*(R4/Vout2)
