Version 4
SHEET 1 1448 3280
WIRE 32 -304 -144 -304
WIRE 480 -304 448 -304
WIRE 544 -304 480 -304
WIRE 640 -304 624 -304
WIRE 736 -304 640 -304
WIRE 864 -304 736 -304
WIRE 944 -304 864 -304
WIRE 1040 -304 944 -304
WIRE -144 -288 -144 -304
WIRE 480 -288 480 -304
WIRE 640 -288 640 -304
WIRE 736 -288 736 -304
WIRE 944 -288 944 -304
WIRE 1040 -288 1040 -304
WIRE -144 -208 -144 -224
WIRE -80 -208 -144 -208
WIRE 32 -208 0 -208
WIRE 480 -208 480 -224
WIRE 480 -208 448 -208
WIRE 640 -192 640 -224
WIRE 736 -192 736 -208
WIRE 736 -192 640 -192
WIRE 944 -192 944 -224
WIRE 1040 -192 1040 -208
WIRE 736 -176 736 -192
WIRE -144 -112 -144 -208
WIRE -144 -112 -256 -112
WIRE 32 -112 -144 -112
WIRE 640 -112 640 -192
WIRE 640 -112 448 -112
WIRE 864 -112 864 -304
WIRE 1072 -112 864 -112
WIRE -256 -96 -256 -112
WIRE 736 -80 736 -96
WIRE -144 -16 -144 -112
WIRE 32 -16 -144 -16
WIRE 480 -16 448 -16
WIRE 544 -16 480 -16
WIRE 640 -16 624 -16
WIRE 736 -16 640 -16
WIRE 848 -16 736 -16
WIRE 944 -16 848 -16
WIRE -256 0 -256 -16
WIRE -144 0 -144 -16
WIRE 480 0 480 -16
WIRE 640 0 640 -16
WIRE 736 0 736 -16
WIRE 848 0 848 -16
WIRE 944 0 944 -16
WIRE -144 80 -144 64
WIRE 32 80 16 80
WIRE 480 80 480 64
WIRE 480 80 448 80
WIRE 640 96 640 64
WIRE 736 96 736 80
WIRE 736 96 640 96
WIRE 848 96 848 64
WIRE 944 96 944 80
WIRE 736 112 736 96
WIRE -64 176 -80 176
WIRE 16 176 16 80
WIRE 16 176 0 176
WIRE 32 176 16 176
WIRE 640 176 640 96
WIRE 640 176 448 176
WIRE 736 208 736 192
WIRE 16 272 16 176
WIRE 32 272 16 272
WIRE 480 272 448 272
WIRE 544 272 480 272
WIRE 640 272 624 272
WIRE 736 272 640 272
WIRE 848 272 736 272
WIRE 944 272 848 272
WIRE 480 288 480 272
WIRE 640 288 640 272
WIRE 736 288 736 272
WIRE 848 288 848 272
WIRE 944 288 944 272
WIRE -96 368 -144 368
WIRE 32 368 -16 368
WIRE 480 368 480 352
WIRE 480 368 448 368
WIRE 640 384 640 352
WIRE 736 384 736 368
WIRE 736 384 640 384
WIRE 848 384 848 352
WIRE 944 384 944 368
WIRE 736 400 736 384
WIRE -64 464 -80 464
WIRE 32 464 16 464
WIRE 640 464 640 384
WIRE 640 464 448 464
WIRE 736 496 736 480
WIRE 240 544 240 528
WIRE -144 576 -144 368
WIRE 1072 576 1072 -112
WIRE 1072 576 -144 576
FLAG 240 544 0
FLAG -80 176 0
FLAG -80 464 0
FLAG 736 -80 0
FLAG 944 -192 0
FLAG 736 496 0
FLAG 848 384 0
FLAG 736 208 0
FLAG 848 96 0
FLAG -144 80 0
FLAG 1040 -192 0
FLAG 1040 -304 OUT1
FLAG 944 384 0
FLAG 944 272 OUT3
FLAG 944 96 0
FLAG 944 -16 OUT2
FLAG -256 0 0
FLAG -256 -112 IN
SYMBOL ind -96 -192 R270
WINDOW 0 38 57 VTop 2
WINDOW 3 -6 60 VBottom 2
SYMATTR InstName L1
SYMATTR Value 10µ
SYMATTR SpiceLine Rser=50m
SYMBOL cap -160 -288 R0
SYMATTR InstName C1
SYMATTR Value 2.2µ
SYMATTR SpiceLine V=50 Irms=0 Rser=0.008 Lser=0
SYMBOL cap 0 160 R90
WINDOW 0 0 32 VBottom 2
WINDOW 3 32 32 VTop 2
SYMATTR InstName C2
SYMATTR Value 10p
SYMBOL res 32 448 R90
WINDOW 0 0 56 VBottom 2
WINDOW 3 32 56 VTop 2
SYMATTR InstName R1
SYMATTR Value 18.2K
SYMBOL schottky 464 -224 M180
WINDOW 0 24 64 Left 2
WINDOW 3 24 0 Left 2
SYMATTR InstName D1
SYMATTR Value MBRS140
SYMATTR Description Diode
SYMATTR Type diode
SYMBOL ind 528 -288 R270
WINDOW 0 32 56 VTop 2
WINDOW 3 -2 56 VBottom 2
SYMATTR InstName L2
SYMATTR Value 8.2µ
SYMATTR SpiceLine Rser=50m
SYMBOL res 720 -304 R0
SYMATTR InstName R2
SYMATTR Value 53.6K
SYMBOL res 720 -192 R0
SYMATTR InstName R3
SYMATTR Value 10k
SYMBOL schottky 464 352 M180
WINDOW 0 24 64 Left 2
WINDOW 3 24 0 Left 2
SYMATTR InstName D2
SYMATTR Value MBRS140
SYMATTR Description Diode
SYMATTR Type diode
SYMBOL res 720 272 R0
SYMATTR InstName R4
SYMATTR Value 12.7K
SYMBOL res 720 384 R0
SYMATTR InstName R5
SYMATTR Value 10K
SYMBOL schottky 464 64 M180
WINDOW 0 24 64 Left 2
WINDOW 3 24 0 Left 2
SYMATTR InstName D4
SYMATTR Value SS24
SYMATTR Description Diode
SYMATTR Type diode
SYMBOL ind 528 0 R270
WINDOW 0 32 56 VTop 2
WINDOW 3 -4 53 VBottom 2
SYMATTR InstName L4
SYMATTR Value 4.7µ
SYMATTR SpiceLine Rser=50m
SYMBOL res 720 -16 R0
SYMATTR InstName R8
SYMATTR Value 31.6K
SYMBOL res 720 96 R0
SYMATTR InstName R9
SYMATTR Value 10K
SYMBOL cap -160 0 R0
SYMATTR InstName C4
SYMATTR Value 4.7µ
SYMBOL ind 528 288 R270
WINDOW 0 32 56 VTop 2
WINDOW 3 -3 56 VBottom 2
SYMATTR InstName L5
SYMATTR Value 4.2µ
SYMATTR SpiceLine Rser=50m
SYMBOL cap 624 288 R0
SYMATTR InstName C5
SYMATTR Value 330p
SYMBOL cap 624 0 R0
SYMATTR InstName C7
SYMATTR Value 100p
SYMBOL cap 624 -288 R0
SYMATTR InstName C8
SYMATTR Value 22p
SYMBOL cap 928 -288 R0
SYMATTR InstName C9
SYMATTR Value 22µ
SYMBOL cap 832 0 R0
SYMATTR InstName C10
SYMATTR Value 47µ
SYMBOL cap 832 288 R0
SYMATTR InstName C12
SYMATTR Value 22µ
SYMBOL res 1024 -304 R0
SYMATTR InstName Rload1
SYMATTR Value 5
SYMBOL res 928 272 R0
SYMATTR InstName Rload3
SYMATTR Value 1.8
SYMBOL res 928 -16 R0
SYMATTR InstName Rload2
SYMATTR Value 1.65
SYMBOL PowerProducts\\LT3514 240 80 R0
SYMATTR InstName U1
SYMBOL voltage -256 -112 R0
WINDOW 123 0 0 Left 2
WINDOW 39 0 0 Left 2
SYMATTR InstName V1
SYMATTR Value 12
SYMBOL res 0 352 R90
WINDOW 0 0 56 VBottom 2
WINDOW 3 32 56 VTop 2
SYMATTR InstName R6
SYMATTR Value 10K
TEXT 904 600 Left 2 !.tran 300u startup
TEXT -240 600 Left 2 ;Notes:\n  A smaller SS capacitor is being used to reduce simulation time. Typical value should be 47nF.\n  If the simulation model is not found please update with the "Sync Release" command from the "Tools" menu.\n  It remains the customer's responsibility to verify proper and reliable operation in the actual application.\n  Component substitution and printed circuit board layout may significantly affect circuit performance or reliability.\n  Contact your local sales representative for assistance. This circuit is distributed to customers only for use with LTC parts.\n  Copyright © 2013 Linear Technology Inc. All rights reserved.
TEXT 432 -384 Bottom 2 ;LT3514 - Triple Step-Down Switching Regulator with 100% Duty Cycle Operation\n36V Triple Buck Regulator\nInput: 5.4V to 36V (40V Transient, ~2.9V UVLO)  Outputs: 5V @ 1A, 3.3V @ 2A & 1.8V @ 1A, Fsw = 1MHz
