Version 4
SHEET 1 2480 1116
WIRE 352 -208 -112 -208
WIRE 848 -208 352 -208
WIRE -192 -192 -288 -192
WIRE 0 -192 -192 -192
WIRE 160 -192 0 -192
WIRE 256 -192 160 -192
WIRE -288 -176 -288 -192
WIRE -192 -176 -192 -192
WIRE 160 -176 160 -192
WIRE 256 -176 256 -192
WIRE 352 -176 352 -208
WIRE 0 -112 0 -192
WIRE 32 -112 0 -112
WIRE 528 -112 496 -112
WIRE 528 -96 528 -112
WIRE -288 -80 -288 -96
WIRE -192 -80 -192 -112
WIRE -112 -16 -112 -208
WIRE -80 -16 -112 -16
WIRE 32 -16 0 -16
WIRE 528 -16 528 -32
WIRE 528 -16 496 -16
WIRE 720 -16 528 -16
WIRE 848 -16 848 -208
WIRE 848 -16 800 -16
WIRE 944 -16 848 -16
WIRE 1040 -16 944 -16
WIRE 528 0 528 -16
WIRE 944 0 944 -16
WIRE 1040 0 1040 -16
WIRE 768 64 736 64
WIRE 848 64 848 -16
WIRE 848 64 768 64
WIRE -112 80 -112 -16
WIRE -80 80 -112 80
WIRE 32 80 0 80
WIRE 528 80 528 64
WIRE 528 80 496 80
WIRE 768 80 768 64
WIRE 848 80 848 64
WIRE 944 96 944 64
WIRE 1040 96 1040 80
WIRE -80 176 -208 176
WIRE 32 176 0 176
WIRE 592 176 496 176
WIRE 768 176 768 144
WIRE 768 176 592 176
WIRE 848 176 848 160
WIRE 848 176 768 176
WIRE 848 192 848 176
WIRE -80 272 -192 272
WIRE 32 272 0 272
WIRE 544 272 496 272
WIRE 736 272 736 64
WIRE 736 272 544 272
WIRE 848 288 848 272
WIRE 1360 304 1296 304
WIRE 1392 304 1360 304
WIRE 1296 320 1296 304
WIRE -80 368 -96 368
WIRE 32 368 0 368
WIRE 544 368 496 368
WIRE 736 368 736 272
WIRE 736 368 544 368
WIRE 1296 432 1296 400
WIRE -208 464 -208 176
WIRE -208 464 -352 464
WIRE -160 464 -208 464
WIRE -64 464 -160 464
WIRE 32 464 -64 464
WIRE 592 464 496 464
WIRE 704 464 592 464
WIRE 752 464 704 464
WIRE 848 464 752 464
WIRE -352 480 -352 464
WIRE -160 480 -160 464
WIRE 752 480 752 464
WIRE 848 480 848 464
WIRE -64 560 -64 544
WIRE -16 560 -64 560
WIRE 32 560 -16 560
WIRE 544 560 496 560
WIRE 592 560 592 544
WIRE 592 560 544 560
WIRE -352 576 -352 560
WIRE -160 576 -160 544
WIRE -64 576 -64 560
WIRE 592 576 592 560
WIRE 752 576 752 544
WIRE 848 576 848 560
WIRE 160 640 160 624
WIRE 160 640 80 640
WIRE 256 640 256 624
WIRE 352 640 352 624
WIRE 448 640 352 640
WIRE 160 656 160 640
WIRE 352 656 352 640
WIRE -64 672 -64 656
WIRE 80 672 80 640
WIRE 448 672 448 640
WIRE 592 672 592 656
WIRE 80 752 80 736
WIRE 160 752 160 736
WIRE 352 752 352 736
WIRE 448 752 448 736
WIRE -192 784 -192 272
WIRE 704 784 704 464
WIRE 704 784 -192 784
FLAG 256 640 0
FLAG 160 752 0
FLAG 352 752 0
FLAG -288 -80 0
FLAG -96 368 0
FLAG -64 672 0
FLAG -160 576 0
FLAG -352 576 0
FLAG 592 672 0
FLAG 752 576 0
FLAG 848 576 0
FLAG 848 288 0
FLAG 944 96 0
FLAG 1040 96 0
FLAG -288 -192 IN
FLAG 1040 -16 OUT1
FLAG -352 464 OUT2
FLAG 848 464 OUT3
FLAG -192 -80 0
FLAG 544 336 0
FLAG 544 432 0
FLAG 448 752 0
FLAG 80 752 0
FLAG 1360 304 vR8
FLAG 1296 432 0
FLAG 592 176 fb1
FLAG 544 560 fb3
FLAG -16 560 fb2
SYMBOL LT3667 256 224 R0
SYMATTR InstName U1
SYMBOL res 16 352 R90
WINDOW 0 0 56 VBottom 2
WINDOW 3 32 56 VTop 2
SYMATTR InstName R1
SYMATTR Value 174K
SYMBOL res -80 448 R0
SYMATTR InstName R4
SYMATTR Value {R2}
SYMBOL res -80 560 R0
SYMATTR InstName R5
SYMATTR Value {R1}
SYMBOL cap -176 480 R0
SYMATTR InstName C3
SYMATTR Value 4.7µ
SYMATTR SpiceLine Rser=10m
SYMBOL res 576 448 R0
SYMATTR InstName R6
SYMATTR Value 499K
SYMBOL res 576 560 R0
SYMATTR InstName R7
SYMATTR Value 158K
SYMBOL cap 736 480 R0
SYMATTR InstName C4
SYMATTR Value 4.7µ
SYMATTR SpiceLine Rser=10m
SYMBOL ind 704 0 R270
WINDOW 0 32 56 VTop 2
WINDOW 3 5 56 VBottom 2
SYMATTR InstName L1
SYMATTR Value 22µ
SYMATTR SpiceLine Ipk=1.05 Rser=267m
SYMBOL schottky 512 64 M180
WINDOW 0 24 64 Left 2
WINDOW 3 24 0 Left 2
SYMATTR InstName D1
SYMATTR Value PMEG6010AED
SYMATTR Description Diode
SYMATTR Type diode
SYMBOL res 832 64 R0
SYMATTR InstName R2
SYMATTR Value {R8}
SYMBOL res 832 176 R0
SYMATTR InstName R3
SYMATTR Value {R7}
SYMBOL cap 512 -96 R0
SYMATTR InstName C5
SYMATTR Value 0.22µ
SYMBOL cap 752 80 R0
SYMATTR InstName C6
SYMATTR Value 22p
SYMBOL cap 928 0 R0
SYMATTR InstName C2
SYMATTR Value 22µ
SYMATTR SpiceLine Rser=10m
SYMBOL res 1024 -16 R0
SYMATTR InstName Rload1
SYMATTR Value 50
SYMBOL res -368 464 R0
SYMATTR InstName Rload2
SYMATTR Value 100
SYMBOL res 832 464 R0
SYMATTR InstName Rload3
SYMATTR Value 33
SYMBOL res 144 640 R0
SYMATTR InstName R8
SYMATTR Value 1.5K
SYMBOL res 336 640 R0
SYMATTR InstName R9
SYMATTR Value 1.5K
SYMBOL cap 64 672 R0
SYMATTR InstName C7
SYMATTR Value 4.7n
SYMBOL cap 432 672 R0
SYMATTR InstName C8
SYMATTR Value 4.7n
SYMBOL res 16 -32 R90
WINDOW 0 0 56 VBottom 2
WINDOW 3 32 56 VTop 2
SYMATTR InstName R10
SYMATTR Value 150K
SYMBOL res 16 64 R90
WINDOW 0 0 56 VBottom 2
WINDOW 3 32 56 VTop 2
SYMATTR InstName R11
SYMATTR Value 150K
SYMBOL res 16 160 R90
WINDOW 0 0 56 VBottom 2
WINDOW 3 25 60 VTop 2
SYMATTR InstName R12
SYMATTR Value 150K
SYMBOL res 16 256 R90
WINDOW 0 0 56 VBottom 2
WINDOW 3 32 56 VTop 2
SYMATTR InstName R13
SYMATTR Value 150K
SYMBOL cap -208 -176 R0
SYMATTR InstName C1
SYMATTR Value 2.2µ
SYMBOL voltage -288 -192 R0
WINDOW 123 24 126 Left 2
WINDOW 39 24 111 Left 2
SYMATTR Value 30
SYMATTR InstName V1
SYMBOL cap 528 272 R0
WINDOW 0 28 14 Left 2
WINDOW 3 28 51 Left 2
SYMATTR InstName C9
SYMATTR Value 1µ
SYMBOL cap 528 368 R0
WINDOW 0 29 14 Left 2
WINDOW 3 29 49 Left 2
SYMATTR InstName C10
SYMATTR Value 1µ
SYMBOL voltage 1296 304 R0
WINDOW 123 0 0 Left 2
WINDOW 39 0 0 Left 2
SYMATTR InstName V2
SYMATTR Value {R8}
TEXT 760 688 Left 2 !.tran 2m
TEXT 288 -232 Bottom 2 ;LT3667 - 40V 400mA Step-Down Switching Regulator with Dual Fault Protected LDOs\n40V Step-Down Regulator with Dual LDOs\nInput: 6V to 40V    Output: 5V @200mA* , 2.5V @ 100mA & 3.3V @ 100mA
TEXT -272 816 Left 2 ;Note:\n  If the simulation model is not found please update with the "Sync Release" command from the "Tools" menu.\n  It remains the customer's responsibility to verify proper and reliable operation in the actual application.\n  Component substitution and printed circuit board layout may significantly affect circuit performance or reliability.\n  Contact your local sales representative for assistance. This circuit is distributed to customers only for use with LTC parts.\n  Copyright © 2015 Linear Technology Inc. All rights reserved.
TEXT -160 424 Left 2 ;(Fsw = 600kHz)
TEXT -344 424 Bottom 2 ;2.5V output\nUp to 200mA
TEXT 984 -64 Left 2 ;5V output *
TEXT 848 432 Bottom 2 ;3.3V output\nUp to 200mA
TEXT 888 -136 Left 2 ;* Maximum total output current \nIOUT1+IOUT2+IOUT3 is up to 400mA.
TEXT 1288 -16 Left 2 !.param fb1=1.2V\n.param Vout1=18V\n.param R7=150k\n.param R8=R7*(Vout1/fb1-1)\n \n.param fb23=0.8V\n.param Vout2=6V\n.param R1=158K\n.param R2=(fb23-Vout2)/(Ifb2-0.8/R1)\n.param Ifb2=4.93u
TEXT 1120 -16 Left 2 ;.ic V(out1)=15
