Version 4
SHEET 1 6304 5092
WIRE 3408 912 3312 912
WIRE 3488 912 3408 912
WIRE 4112 912 3488 912
WIRE 3312 928 3312 912
WIRE 3408 928 3408 912
WIRE 3648 976 3632 976
WIRE 4112 976 4112 912
WIRE 4112 976 4064 976
WIRE 4144 976 4112 976
WIRE 4224 976 4208 976
WIRE 3312 1024 3312 1008
WIRE 3408 1024 3408 992
WIRE 3552 1056 3536 1056
WIRE 3632 1056 3632 976
WIRE 3632 1056 3616 1056
WIRE 3648 1056 3632 1056
WIRE 4160 1056 4064 1056
WIRE 4224 1056 4160 1056
WIRE 4352 1056 4304 1056
WIRE 4464 1056 4352 1056
WIRE 4576 1056 4464 1056
WIRE 4160 1072 4160 1056
WIRE 4352 1072 4352 1056
WIRE 4464 1072 4464 1056
WIRE 4576 1072 4576 1056
WIRE 3632 1136 3632 1056
WIRE 3648 1136 3632 1136
WIRE 4080 1136 4064 1136
WIRE 4160 1152 4160 1136
WIRE 4464 1168 4464 1136
WIRE 4576 1168 4576 1152
WIRE 4080 1184 4080 1136
WIRE 4352 1184 4352 1152
WIRE 4352 1184 4080 1184
WIRE 4352 1200 4352 1184
WIRE 3488 1216 3488 912
WIRE 3536 1216 3488 1216
WIRE 3648 1216 3616 1216
WIRE 4080 1216 4064 1216
WIRE 4576 1280 4576 1264
WIRE 3488 1296 3488 1216
WIRE 3536 1296 3488 1296
WIRE 3648 1296 3616 1296
WIRE 4112 1296 4112 976
WIRE 4112 1296 4064 1296
WIRE 4144 1296 4112 1296
WIRE 4224 1296 4208 1296
WIRE 4352 1296 4352 1280
WIRE 4464 1296 4464 1264
WIRE 3552 1376 3520 1376
WIRE 3648 1376 3616 1376
WIRE 4144 1376 4064 1376
WIRE 4224 1376 4144 1376
WIRE 4352 1376 4288 1376
WIRE 4464 1376 4464 1360
WIRE 4464 1376 4352 1376
WIRE 4576 1376 4576 1360
WIRE 4576 1376 4464 1376
WIRE 4144 1392 4144 1376
WIRE 4352 1408 4352 1376
WIRE 3552 1456 3520 1456
WIRE 3648 1456 3616 1456
WIRE 4096 1456 4064 1456
WIRE 4144 1488 4144 1472
WIRE 3712 1520 3712 1504
WIRE 3840 1520 3840 1504
WIRE 3952 1520 3952 1504
WIRE 4096 1520 4096 1456
WIRE 4352 1520 4352 1488
WIRE 4352 1520 4096 1520
WIRE 4352 1536 4352 1520
WIRE 3712 1616 3712 1600
WIRE 4352 1632 4352 1616
WIRE 3488 1648 3488 1296
WIRE 3840 1648 3840 1600
WIRE 3840 1648 3488 1648
WIRE 3952 1648 3952 1600
WIRE 3952 1648 3840 1648
FLAG 3312 1024 0
FLAG 4464 1264 0
FLAG 4144 1488 0
FLAG 4576 1376 OUT2
FLAG 4080 1216 0
FLAG 3520 1376 0
FLAG 3712 1616 0
FLAG 4352 1632 0
FLAG 3520 1456 0
FLAG 3536 1056 0
FLAG 4224 976 0
FLAG 4352 1296 0
FLAG 4576 1056 OUT1
FLAG 4464 1168 0
FLAG 4576 1264 0
FLAG 4576 1168 0
FLAG 4160 1152 0
FLAG 3312 912 IN
FLAG 4224 1296 0
FLAG 3408 1024 0
SYMBOL res 3696 1504 R0
SYMATTR InstName R1
SYMATTR Value 187K
SYMBOL res 4336 1632 M180
WINDOW 0 36 76 Left 2
WINDOW 3 36 40 Left 2
SYMATTR InstName R2
SYMATTR Value 59K
SYMBOL res 4336 1504 M180
WINDOW 0 36 76 Left 2
WINDOW 3 36 40 Left 2
SYMATTR InstName R3
SYMATTR Value 316K
SYMBOL res 3520 1312 R270
WINDOW 0 32 56 VTop 2
WINDOW 3 2 56 VBottom 2
SYMATTR InstName R4
SYMATTR Value 499K
SYMBOL cap 3616 1392 M270
WINDOW 0 30 32 VTop 2
WINDOW 3 2 32 VBottom 2
SYMATTR InstName C1
SYMATTR Value 500p
SYMBOL cap 4448 1360 M180
WINDOW 3 39 33 Left 2
WINDOW 123 30 9 Left 2
WINDOW 0 29 59 Left 2
SYMATTR Value 47µ
SYMATTR Value2 x2
SYMATTR InstName C2
SYMATTR SpiceLine Rser=.005
SYMBOL voltage 3312 912 R0
WINDOW 123 0 0 Left 2
WINDOW 39 0 0 Left 2
SYMATTR InstName V1
SYMATTR Value 22
SYMBOL ind 4128 1376 R0
SYMATTR InstName L1
SYMATTR Value 10µ
SYMATTR SpiceLine Ipk=1.5 Rser=0.215 Rpar=6445.91 Cpar=6.04p mfg="Wurth Elektronik" pn="74437324100 WE-LHMI 4020"
SYMBOL cap 3616 1440 R90
WINDOW 0 3 30 VBottom 2
WINDOW 3 32 32 VTop 2
SYMATTR InstName C3
SYMATTR Value 500p
SYMBOL schottky 4288 1392 M270
WINDOW 0 32 32 VTop 2
WINDOW 3 0 32 VBottom 2
SYMATTR InstName D1
SYMATTR Value MBRS360
SYMATTR Description Diode
SYMATTR Type diode
SYMBOL res 3824 1504 R0
SYMATTR InstName R5
SYMATTR Value 100K
SYMBOL res 3936 1504 R0
SYMATTR InstName R6
SYMATTR Value 100K
SYMBOL cap 3616 1040 R90
WINDOW 0 0 32 VBottom 2
WINDOW 3 32 32 VTop 2
SYMATTR InstName C4
SYMATTR Value 2.2µ
SYMBOL cap 4144 992 R270
WINDOW 0 32 32 VTop 2
WINDOW 3 0 32 VBottom 2
SYMATTR InstName C5
SYMATTR Value 2.2µ
SYMBOL schottky 4144 1136 M180
WINDOW 0 24 64 Left 2
WINDOW 3 24 0 Left 2
SYMATTR InstName D2
SYMATTR Value MBRS340
SYMATTR Description Diode
SYMATTR Type diode
SYMBOL ind 4208 1072 R270
WINDOW 0 32 56 VTop 2
WINDOW 3 5 56 VBottom 2
SYMATTR InstName L2
SYMATTR Value 6.8µ
SYMATTR SpiceLine Ipk=1.75 Rser=0.15 Rpar=4993.38 Cpar=5.8p mfg="Wurth Elektronik" pn="74437324068 WE-LHMI 4020"
SYMBOL res 4336 1184 R0
SYMATTR InstName R7
SYMATTR Value {R7}
SYMBOL res 4336 1056 R0
SYMATTR InstName R8
SYMATTR Value {R8}
SYMBOL cap 4448 1072 R0
WINDOW 3 37 32 Left 2
WINDOW 123 24 55 Left 2
SYMATTR Value 47µ
SYMATTR Value2 x2
SYMATTR InstName C7
SYMATTR SpiceLine Rser=.005
SYMBOL ind 3520 1232 R270
WINDOW 0 32 56 VTop 2
WINDOW 3 5 56 VBottom 2
SYMATTR InstName L3
SYMATTR Value 15µ
SYMATTR SpiceLine Ipk=0.72 Rser=0.356 Rpar=10373 Cpar=1.734p mfg="Wurth Elektronik" pn="744025150 WE-TPC 2828"
SYMBOL LT8471 3856 1248 R0
SYMATTR InstName U1
SYMBOL res 4560 1056 R0
SYMATTR InstName Rload1
SYMATTR Value 3.6
SYMBOL res 4560 1376 M180
WINDOW 0 36 76 Left 2
WINDOW 3 36 40 Left 2
SYMATTR InstName Rload2
SYMATTR Value 6.25
SYMBOL cap 4144 1312 R270
WINDOW 0 32 32 VTop 2
WINDOW 3 0 32 VBottom 2
SYMATTR InstName C6
SYMATTR Value 2.2µ
SYMBOL cap 3392 928 R0
SYMATTR InstName C8
SYMATTR Value 47µ
TEXT 4416 1656 Left 2 !.tran .5m startup
TEXT 3824 1992 Bottom 2 ;LT8471 - Dual Multitopology DC/DC Converters with 2A Switches and Synchronization\nDual Output Buck & Inverting Converter\nInput: 6V to 32V     Output: +5V @ 1.4A & -5V @ 800mA, Fsw = 450kHz
TEXT 3392 1680 Left 2 ;Note:\n  Smaller soft start capacitors (C1 & C3) are being used to speed up simulation. Typical value should be 0.1µF.\n  If the simulation model is not found please update with the "Sync Release" command from the "Tools" menu.\n  It remains the customer's responsibility to verify proper and reliable operation in the actual application.\n  Component substitution and printed circuit board layout may significantly affect circuit performance or reliability.\n  Contact your local sales representative for assistance. This circuit is distributed to customers only for use with LTC parts.\n  Copyright © 2015 Linear Technology Inc. All rights reserved.
TEXT 4576 1024 Bottom 2 ;+5V @ 1.4A
TEXT 4584 1400 Top 2 ;-5V @ 800mA
TEXT 4496 608 Left 2 ;out1=VR8+VR7=Iq*(R8+R7)\nout1=Iq*R8+.8V  -->  R8=(Vout1-.8V)/Iq\nIq=Vout1/(R8+R7)\nR8=(Vout1-.8V)*(R8+R7)/Vout1
TEXT 4496 744 Left 2 !.param Vout1=5V\n.param R7=59k\n.param R8=R7*(Vout1/0.8V-1)
TEXT 4384 864 Left 2 !.ic V(out1) = 4.8V
TEXT 3880 744 Left 2 !.op ALL 0 ALL 10ns
