Version 4
SHEET 1 880 680
WIRE 288 64 240 64
WIRE 240 128 240 64
WIRE 176 160 -16 160
WIRE 288 176 288 64
WIRE 176 224 176 160
WIRE 208 224 176 224
WIRE 464 224 368 224
WIRE 464 240 448 240
WIRE 608 240 528 240
WIRE 80 256 -48 256
WIRE 208 272 144 272
WIRE 80 288 48 288
WIRE 48 352 48 288
WIRE 48 352 -16 352
WIRE 448 352 448 240
WIRE 448 352 48 352
WIRE 288 416 288 320
WIRE 400 416 288 416
FLAG -16 160 in
IOPIN -16 160 In
FLAG -16 352 enb
IOPIN -16 352 In
FLAG 608 240 out
IOPIN 608 240 Out
FLAG -48 256 clk
IOPIN -48 256 In
FLAG 240 128 0
FLAG 400 416 clr
IOPIN 400 416 In
SYMBOL Linear_technology_libs\\Digital\\and 112 224 R0
SYMATTR InstName A1
SYMBOL Linear_technology_libs\\Digital\\or 496 192 R0
SYMATTR InstName A4
SYMBOL Linear_technology_libs\\Digital\\dflop 288 176 R0
WINDOW 3 8 12 Left 0
SYMATTR InstName A2
SYMATTR Value TD=1n
