Version 4
SHEET 1 888 852
WIRE 192 -32 -496 -32
WIRE 352 -32 192 -32
WIRE 512 -32 464 -32
WIRE 544 -32 512 -32
WIRE -48 32 -80 32
WIRE -32 32 -48 32
WIRE 224 32 96 32
WIRE 432 32 224 32
WIRE 576 32 544 32
WIRE 608 32 576 32
WIRE -192 96 -192 32
WIRE -80 96 -192 96
WIRE -32 96 -80 96
WIRE 352 96 352 -32
WIRE -496 112 -496 -32
WIRE -192 128 -192 96
WIRE 96 128 96 32
WIRE 128 128 96 128
WIRE 288 128 208 128
WIRE 432 128 432 32
WIRE 432 128 416 128
WIRE 816 128 432 128
WIRE -32 160 -32 96
WIRE 128 160 -32 160
WIRE 288 160 272 160
WIRE -496 208 -496 192
WIRE 352 256 352 208
WIRE 464 256 352 256
WIRE 560 256 464 256
WIRE 704 256 672 256
WIRE 736 256 704 256
WIRE 32 272 -80 272
WIRE 48 272 32 272
WIRE 272 272 272 160
WIRE 272 272 48 272
WIRE -80 288 -80 272
WIRE 560 288 560 256
WIRE 48 304 48 272
WIRE 192 304 160 304
WIRE 224 304 192 304
WIRE 816 464 816 128
WIRE 816 464 336 464
WIRE 448 480 416 480
WIRE 416 496 416 480
WIRE 448 528 448 480
WIRE 336 560 336 464
WIRE 384 560 336 560
WIRE 640 560 512 560
WIRE 704 560 640 560
WIRE 848 560 816 560
WIRE 864 560 848 560
WIRE 384 592 288 592
WIRE 608 592 512 592
WIRE 704 592 608 592
WIRE 848 592 816 592
WIRE 864 592 848 592
WIRE 384 624 320 624
WIRE 576 624 512 624
WIRE 704 624 576 624
WIRE 848 624 816 624
WIRE 864 624 848 624
WIRE 384 656 352 656
WIRE 704 656 512 656
WIRE 848 656 816 656
WIRE 864 656 848 656
WIRE 272 688 272 272
WIRE 384 688 272 688
WIRE 448 768 448 736
WIRE 352 816 352 656
WIRE 576 816 576 624
WIRE 576 816 352 816
WIRE 320 832 320 624
WIRE 608 832 608 592
WIRE 608 832 320 832
WIRE 288 848 288 592
WIRE 640 848 640 560
WIRE 640 848 288 848
FLAG -80 368 0
FLAG -192 208 0
FLAG 224 32 out
FLAG 32 272 clk
FLAG -80 96 tgl
FLAG -48 32 tgl_
FLAG 576 32 out_
FLAG 192 304 clk_
FLAG -496 208 0
FLAG 560 368 0
FLAG 192 -32 set
FLAG 512 -32 set_
FLAG 704 256 clr_
FLAG 464 256 clr
FLAG 448 768 0
FLAG 416 496 0
FLAG 848 560 q1_
FLAG 848 592 q2_
FLAG 848 624 q3_
FLAG 848 656 q4_
SYMBOL Source-V -80 272 R0
WINDOW 123 0 0 Left 0
WINDOW 39 0 0 Left 0
SYMATTR InstName V1
SYMATTR Value PULSE(0 5 0 1p 1p 1u 2u)
SYMBOL Source-V -192 112 R0
WINDOW 123 0 0 Left 0
WINDOW 39 0 0 Left 0
SYMATTR InstName V2
SYMATTR Value PULSE(0 5 0.5u 1n 1n 10u 15u)
SYMBOL probe_dig 432 16 R0
SYMATTR Value T=4
SYMATTR InstName U3
SYMBOL probe_dig -192 16 R0
SYMATTR Value T=1
SYMATTR InstName U4
SYMBOL probe_dig 48 288 R0
SYMATTR InstName U5
SYMATTR Value T=0
SYMBOL Source-V -496 96 R0
WINDOW 3 -171 141 Left 0
WINDOW 123 0 0 Left 0
WINDOW 39 0 0 Left 0
SYMATTR Value PULSE(0 5 30u 1n 1n 10u)
SYMATTR InstName V3
SYMBOL probe_dig 352 -48 R0
SYMATTR Value T=2
SYMATTR InstName U6
SYMBOL Source-V 560 272 R0
WINDOW 3 -162 159 Left 0
WINDOW 123 0 0 Left 0
WINDOW 39 0 0 Left 0
SYMATTR Value PULSE(0 5 50u 1n 1n 10u)
SYMATTR InstName V4
SYMBOL probe_dig 560 240 R0
SYMATTR Value T=3
SYMATTR InstName U7
SYMBOL probe_dig 704 544 R0
SYMATTR Value T=5
SYMATTR InstName U9
SYMBOL probe_dig 704 576 R0
SYMATTR Value T=6
SYMATTR InstName U10
SYMBOL probe_dig 704 608 R0
SYMATTR Value T=7
SYMATTR InstName U11
SYMBOL probe_dig 704 640 R0
SYMATTR Value T=8
SYMATTR InstName U12
SYMBOL EIT_Digital\\EXOR_2 128 144 R0
SYMATTR InstName U8
SYMBOL EIT_Digital\\DFF_RS 352 96 R0
SYMATTR InstName U2
SYMBOL EIT_Digital\\DFF4_rs 448 528 R0
SYMATTR InstName U1
TEXT 280 368 Left 0 !.tran 0 70u 0
TEXT -168 -64 Left 0 !.param vpwr$_digital=5
