Version 4
SHEET 1 992 680
WIRE 800 -32 352 -32
WIRE 800 64 800 -32
WIRE 944 64 912 64
WIRE 960 64 944 64
WIRE 192 112 112 112
WIRE 352 112 352 -32
WIRE 352 112 320 112
WIRE 368 112 352 112
WIRE 400 112 368 112
WIRE 608 112 528 112
WIRE 800 112 608 112
WIRE 800 128 800 112
WIRE 944 128 912 128
WIRE 960 128 944 128
WIRE -16 144 -80 144
WIRE 144 144 -16 144
WIRE 192 144 144 144
WIRE 400 144 384 144
WIRE 576 144 528 144
WIRE -320 160 -352 160
WIRE -144 160 -320 160
WIRE -352 208 -352 160
WIRE 944 224 912 224
WIRE 960 224 944 224
WIRE 112 256 112 112
WIRE 576 256 576 144
WIRE 576 256 112 256
WIRE 144 288 144 144
WIRE 384 288 384 144
WIRE 384 288 144 288
WIRE 800 288 800 224
WIRE 800 288 384 288
WIRE -352 336 -352 288
WIRE -144 336 -352 336
WIRE 256 352 256 192
WIRE 256 352 128 352
WIRE 352 352 256 352
WIRE 464 352 464 192
WIRE 464 352 352 352
WIRE -144 368 -144 336
WIRE 128 496 128 432
FLAG -144 368 0
FLAG 128 496 0
FLAG 368 112 q1
FLAG 608 112 q2
FLAG -16 144 clk
FLAG 352 352 res
FLAG -320 160 in
FLAG 944 64 D1
FLAG 944 128 D0
FLAG 944 224 clk_d
SYMBOL voltage -352 192 R0
WINDOW 123 0 0 Left 0
WINDOW 39 0 0 Left 0
SYMATTR InstName V1
SYMATTR Value SINE(0 5 40k 0 0 0)
SYMBOL voltage 128 336 R0
WINDOW 123 0 0 Left 0
WINDOW 39 0 0 Left 0
SYMATTR InstName V2
SYMATTR Value 0
SYMBOL probe_dig 800 208 R0
SYMATTR InstName U1
SYMATTR Value T=0
SYMBOL probe_dig 800 112 R0
SYMATTR Value T=1
SYMATTR InstName U2
SYMBOL probe_dig 800 48 R0
SYMATTR Value T=2
SYMATTR InstName U3
SYMBOL EIT_Digital\\DFF_R 464 80 R0
SYMATTR InstName U4
SYMBOL EIT_Digital\\DFF_R 256 80 R0
SYMATTR InstName U5
SYMBOL EIT_Digital\\schmitt-trigger-single -144 96 R0
SYMATTR InstName U6
SYMATTR SpiceLine VH=0.1V
SYMATTR Value2 VT=0V
TEXT -168 456 Left 0 !.tran 200u
TEXT -72 16 Left 0 !.param vpwr$_digital=5
