Version 4
SHEET 1 880 680
WIRE 144 128 80 128
WIRE 192 128 144 128
WIRE 224 128 192 128
WIRE 320 128 304 128
WIRE 352 128 320 128
WIRE 464 128 416 128
WIRE 480 128 464 128
WIRE 80 160 80 128
WIRE 352 192 320 192
WIRE 448 192 416 192
WIRE 80 256 80 240
WIRE 320 256 320 192
WIRE 448 256 448 192
WIRE 560 256 560 128
FLAG 80 256 0
FLAG 320 256 0
FLAG 448 256 0
FLAG 560 256 0
FLAG 144 128 in
FLAG 192 128 in
FLAG 320 128 1
FLAG 464 128 2
SYMBOL Source-V 80 144 R0
WINDOW 3 -130 138 Left 0
WINDOW 123 0 0 Left 0
WINDOW 39 0 0 Left 0
SYMATTR Value PULSE(0 100 0 300n 300n 1u 2u)
SYMATTR InstName V1
SYMBOL res 208 144 R270
WINDOW 0 25 56 VTop 0
WINDOW 3 7 56 VBottom 0
SYMATTR InstName R1
SYMATTR Value 100
SYMBOL res 464 144 R270
WINDOW 0 25 56 VTop 0
WINDOW 3 7 56 VBottom 0
SYMATTR InstName R2
SYMATTR Value 1
SYMBOL Ideal_Trafo 384 160 R0
SYMATTR InstName U1
SYMATTR Value N=10
TEXT 64 328 Left 0 !.tran 10u
