Version 4
SHEET 1 880 680
WIRE 336 128 208 128
WIRE 512 128 464 128
WIRE 560 128 512 128
WIRE 464 256 400 256
WIRE 688 256 688 128
WIRE 688 256 464 256
FLAG 208 208 0
FLAG 464 256 out
FLAG 512 128 abl
SYMBOL Function-V 208 112 R0
WINDOW 3 -112 134 Left 0
SYMATTR Value V=sin(v(out)+0.3*v(abl))
SYMATTR InstName B1
SYMBOL EIT_PLL\\integrator 400 128 R0
SYMATTR Value KI=-1
SYMATTR InstName U1
SYMBOL EIT_PLL\\integrator 624 128 R0
SYMATTR InstName U2
SYMATTR Value2 IC=3.142
TEXT 104 72 Left 0 !.tran 40 uic
TEXT 160 280 Left 0 ;0.3: Dämpfung
