Version 4
SHEET 1 880 680
WIRE -112 144 -208 144
WIRE 96 176 -16 176
WIRE 416 176 384 176
WIRE 448 176 416 176
WIRE -208 192 -208 144
WIRE -16 192 -16 176
WIRE -112 288 -112 144
WIRE -16 288 -16 272
WIRE -16 288 -112 288
FLAG -208 272 0
FLAG 416 176 out
SYMBOL Source-V -16 176 R0
WINDOW 3 -21 142 Left 0
WINDOW 123 0 0 Left 0
WINDOW 39 0 0 Left 0
SYMATTR Value PULSE(0 100 1u 1m 1m 1u 2m)
SYMATTR InstName V1
SYMBOL Source-V -208 176 R0
WINDOW 3 -136 168 Left 0
WINDOW 123 0 0 Left 0
WINDOW 39 0 0 Left 0
SYMATTR Value PULSE(0 300 0.5m)
SYMATTR InstName V2
SYMBOL EIT_PLL\\PD_PFD_laplace 240 176 R0
SYMATTR InstName U2
TEXT 40 32 Left 0 !.tran 3m
