Version 4
SHEET 1 880 680
WIRE -96 176 -192 176
WIRE 96 176 -16 176
WIRE 416 176 224 176
WIRE 448 176 416 176
WIRE -16 192 -16 176
WIRE -256 208 -352 208
WIRE -352 240 -352 208
WIRE -192 240 -192 176
WIRE -96 272 -96 176
WIRE -16 272 -96 272
WIRE -256 320 -256 208
WIRE -192 320 -256 320
FLAG -352 320 0
FLAG 416 176 out
SYMBOL Source-V -16 176 R0
WINDOW 3 -45 114 Left 0
WINDOW 123 0 0 Left 0
WINDOW 39 0 0 Left 0
SYMATTR Value PULSE(0 100 1u 1m 1m 1u 2m)
SYMATTR InstName V1
SYMBOL Source-V -192 224 R0
WINDOW 3 -35 123 Left 0
WINDOW 123 0 0 Left 0
WINDOW 39 0 0 Left 0
SYMATTR Value PULSE(0 22 0.5m)
SYMATTR InstName V2
SYMBOL pfd_laplace 96 176 R0
SYMATTR InstName X1
SYMBOL Source-V -352 224 R0
WINDOW 3 -97 158 Left 0
WINDOW 123 0 0 Left 0
WINDOW 39 0 0 Left 0
SYMATTR Value PULSE(0 -10 2.5m)
SYMATTR InstName V3
TEXT 40 32 Left 0 !.tran 0 3m 0 100n
TEXT -456 104 Left 0 !.param A=5
