Version 4
SHEET 1 1080 680
WIRE 480 -48 448 -48
WIRE -32 -32 -64 -32
WIRE 0 -32 -32 -32
WIRE 176 -32 96 -32
WIRE 224 -32 176 -32
WIRE 384 32 384 -48
WIRE 480 32 480 -48
WIRE 480 32 464 32
WIRE 496 32 480 32
WIRE 608 32 560 32
WIRE -192 144 -208 144
WIRE -176 144 -192 144
WIRE -64 144 -64 -32
WIRE -64 144 -80 144
WIRE -48 144 -64 144
WIRE 272 144 240 144
WIRE 288 144 272 144
WIRE 384 144 384 32
WIRE 384 144 368 144
WIRE 480 144 384 144
WIRE 608 144 608 32
WIRE 704 144 608 144
WIRE 736 144 704 144
WIRE 912 144 864 144
WIRE 608 160 608 144
WIRE 608 160 544 160
WIRE 480 176 432 176
WIRE -208 208 -208 144
WIRE 432 208 432 176
WIRE -128 272 -128 192
WIRE -96 272 -128 272
WIRE 912 272 912 144
WIRE 912 272 -96 272
WIRE -208 320 -208 288
FLAG 704 144 f
FLAG 272 144 mo
FLAG -208 320 0
FLAG -192 144 f1
FLAG -96 272 f2
FLAG 432 208 0
FLAG -32 -32 phi_e
FLAG 176 -32 omega_e
SYMBOL res 384 128 R90
WINDOW 0 4 56 VBottom 0
WINDOW 3 27 56 VTop 0
SYMATTR InstName R1
SYMATTR Value 10k
SYMBOL cap 560 16 R90
WINDOW 0 0 32 VBottom 0
WINDOW 3 32 32 VTop 0
SYMATTR InstName C1
SYMATTR Value 100n ic=0
SYMBOL Source-V -208 192 R0
WINDOW 123 0 0 Left 0
WINDOW 39 0 0 Left 0
WINDOW 3 1 111 Left 0
SYMATTR Value PULSE(0 {2*pi*5k} 1m 1)
SYMATTR InstName V1
SYMBOL Phase_to_Frequency 64 -32 R0
SYMATTR InstName U4
SYMATTR Value K={1/1k}
SYMBOL integrator 800 144 R0
SYMATTR Value KI={-2*pi*500}
SYMATTR InstName U2
SYMBOL res 480 16 R90
WINDOW 0 6 56 VBottom 0
WINDOW 3 25 56 VTop 0
SYMATTR InstName R2
SYMATTR Value 10k
SYMBOL op_3 512 160 R0
WINDOW 123 -57 46 Left 0
WINDOW 3 -148 80 Left 0
SYMATTR Value Vp=15 Vm=-15 Ilim=20m
SYMATTR InstName U3
SYMBOL cap 448 -64 R90
WINDOW 0 0 32 VBottom 0
WINDOW 3 32 32 VTop 0
SYMATTR InstName C2
SYMATTR Value 1p
SYMBOL EIT_PLL\\Subtraction -128 144 R0
SYMATTR InstName U1
SYMBOL EIT_PLL\\PD_PFD_laplace 96 144 R0
SYMATTR Value A=5
SYMATTR InstName U5
TEXT 112 304 Left 0 !.tran 0 12m 0 1u uic
