Version 4
SHEET 1 1076 680
WIRE 480 0 464 0
WIRE 480 48 480 0
WIRE 512 48 480 48
WIRE 608 48 576 48
WIRE 384 96 384 0
WIRE 480 96 480 48
WIRE 480 96 448 96
WIRE 48 128 16 128
WIRE 128 128 48 128
WIRE 256 144 208 144
WIRE 272 144 256 144
WIRE 384 144 384 96
WIRE 384 144 352 144
WIRE 480 144 384 144
WIRE 128 160 96 160
WIRE 608 160 608 48
WIRE 608 160 544 160
WIRE 640 160 608 160
WIRE 672 160 640 160
WIRE 480 176 432 176
WIRE 896 192 864 192
WIRE 96 288 96 160
WIRE 128 288 96 288
WIRE 896 288 896 192
WIRE 896 288 128 288
FLAG 640 160 f
FLAG 256 144 mo
FLAG 48 128 f1
FLAG 128 288 f2
SYMBOL vco_real 800 128 R0
SYMATTR Value Kf=1k
SYMATTR SpiceLine f0=5k
SYMATTR InstName U2
SYMBOL res 368 128 R90
WINDOW 0 4 56 VBottom 0
WINDOW 3 27 56 VTop 0
SYMATTR InstName R1
SYMATTR Value 10k
SYMBOL cap 576 32 R90
WINDOW 0 0 32 VBottom 0
WINDOW 3 32 32 VTop 0
SYMATTR InstName C1
SYMATTR Value 100n ic=-2.5
SYMBOL res 480 -16 R90
WINDOW 0 4 56 VBottom 0
WINDOW 3 27 56 VTop 0
SYMATTR InstName R2
SYMATTR Value 4k
SYMBOL op_3 512 160 R0
WINDOW 123 -148 74 Left 0
WINDOW 3 -149 47 Left 0
SYMATTR Value Vp=10 Vm=-20 Ilim=20m
SYMATTR InstName U3
SYMBOL cap 448 80 R90
WINDOW 0 0 32 VBottom 0
WINDOW 3 32 32 VTop 0
SYMATTR InstName C2
SYMATTR Value 20n
SYMBOL source-vmarker 432 176 R0
WINDOW 3 -53 0 Center 0
SYMATTR Value V=2.5V
SYMATTR InstName U4
SYMBOL EIT_PLL\\PD_EXOR_real 128 144 R0
SYMATTR InstName U5
SYMBOL EIT_PLL\\frequency_phase_step -32 128 R0
SYMATTR InstName U1
SYMATTR Value f0=5k phi0=0
TEXT 32 40 Left 0 !.tran 0 20m 0 1u uic
