Version 4
SHEET 1 1124 680
WIRE 512 0 496 0
WIRE 512 48 512 0
WIRE 544 48 512 48
WIRE 640 48 608 48
WIRE 416 96 416 0
WIRE 512 96 512 48
WIRE 512 96 480 96
WIRE 80 128 64 128
WIRE 112 128 80 128
WIRE 288 128 240 128
WIRE 288 144 288 128
WIRE 288 144 208 144
WIRE 320 144 288 144
WIRE 416 144 416 96
WIRE 416 144 400 144
WIRE 512 144 416 144
WIRE 912 144 896 144
WIRE 112 160 96 160
WIRE 640 160 640 48
WIRE 640 160 576 160
WIRE 672 160 640 160
WIRE 704 160 672 160
WIRE 512 176 464 176
WIRE 96 288 96 160
WIRE 256 288 96 288
WIRE 912 288 912 144
WIRE 912 288 256 288
FLAG 672 160 f
FLAG 256 288 f2
FLAG 80 128 f1
SYMBOL vco_real 832 128 R0
SYMATTR Value Kf=-1k
SYMATTR SpiceLine f0=5k
SYMATTR InstName U2
SYMBOL res 416 128 R90
WINDOW 0 1 66 VBottom 0
WINDOW 3 28 71 VTop 0
SYMATTR InstName R1
SYMATTR Value 10k
SYMBOL cap 608 32 R90
WINDOW 0 0 32 VBottom 0
WINDOW 3 32 32 VTop 0
SYMATTR InstName C1
SYMATTR Value 100n ic=0
SYMBOL res 512 -16 R90
WINDOW 0 4 56 VBottom 0
WINDOW 3 27 56 VTop 0
SYMATTR InstName R2
SYMATTR Value 4k
SYMBOL op_3 544 160 R0
WINDOW 123 -148 74 Left 0
WINDOW 3 -149 47 Left 0
SYMATTR Value Vp=20 Vm=-20 Ilim=20m
SYMATTR InstName U3
SYMBOL cap 480 80 R90
WINDOW 0 0 32 VBottom 0
WINDOW 3 32 32 VTop 0
SYMATTR InstName C2
SYMATTR Value 20f
SYMBOL source-vmarker 464 176 R0
WINDOW 3 -53 0 Center 0
SYMATTR Value V=0
SYMATTR InstName U4
SYMBOL EIT_PLL\\Frequency_Phase_step 16 128 R0
WINDOW 0 -12 -47 Left 0
WINDOW 3 -158 67 Left 0
WINDOW 39 -273 101 Left 0
WINDOW 40 -193 -84 Left 0
SYMATTR InstName U5
SYMATTR Value f0=100k phi0=-90
SYMATTR SpiceLine f1=5k+5*1.77k/(2*pi) phi1=-90
SYMATTR SpiceLine2 Amp=0.5V
SYMBOL EIT_PLL\\PD_S&H_2_real 112 144 R0
SYMATTR InstName U1
TEXT -16 16 Left 0 !.tran 0 50m 0 1u uic
