Version 4
SHEET 1 880 680
WIRE -320 48 -336 48
WIRE -144 48 -320 48
WIRE -96 48 -144 48
WIRE 80 48 32 48
WIRE 272 48 80 48
WIRE -336 64 -336 48
WIRE -96 80 -176 80
WIRE -336 160 -336 144
WIRE -256 208 -336 208
WIRE -176 208 -176 80
WIRE -176 208 -256 208
WIRE -144 240 -144 48
WIRE -96 240 -144 240
WIRE 80 240 32 240
WIRE 208 240 80 240
WIRE -176 272 -176 208
WIRE -96 272 -176 272
FLAG -336 160 0
FLAG -336 288 0
FLAG 80 48 aus_2
FLAG -320 48 in1
FLAG -256 208 in2
FLAG 80 240 aus_1
SYMBOL Source-V -336 48 R0
WINDOW 3 -146 -27 Left 0
WINDOW 123 0 0 Left 0
WINDOW 39 0 0 Left 0
WINDOW 0 -59 51 Left 0
SYMATTR Value SINE(0 2 1k)
SYMATTR InstName V1
SYMBOL Source-V -336 192 R0
WINDOW 3 -174 13 Left 0
WINDOW 123 0 0 Left 0
WINDOW 39 0 0 Left 0
WINDOW 0 -60 53 Left 0
SYMATTR Value SINE(0 1 1.1k)
SYMATTR InstName V2
SYMBOL EIT_PLL\\PD_S&H_1_real -96 256 R0
SYMATTR InstName U1
SYMBOL EIT_PLL\\PD_S&H_2_real -96 64 R0
SYMATTR InstName U2
TEXT -8 -160 Left 0 !.tran 0 10m 0 1u
