Version 4
SHEET 1 880 680
WIRE 48 144 0 144
WIRE 160 144 48 144
WIRE 256 144 224 144
WIRE 288 144 256 144
WIRE 416 144 400 144
WIRE 432 144 416 144
WIRE 112 176 80 176
WIRE 160 176 112 176
WIRE 256 176 224 176
WIRE 288 176 256 176
WIRE 416 176 400 176
WIRE 432 176 416 176
WIRE 0 192 0 144
WIRE 80 192 80 176
FLAG 80 272 0
FLAG 0 272 0
FLAG 256 144 o
FLAG 256 176 on
FLAG 48 144 k10
FLAG 112 176 k1
FLAG 416 144 o_
FLAG 416 176 on_
SYMBOL Source-V 80 176 R0
WINDOW 123 0 0 Left 0
WINDOW 39 0 0 Left 0
SYMATTR InstName V1
SYMATTR Value SINE(0 1 1k)
SYMBOL Source-V 0 176 R0
WINDOW 3 -17 136 Left 0
WINDOW 123 0 0 Left 0
WINDOW 39 0 0 Left 0
SYMATTR Value SINE(0 1 10k)
SYMATTR InstName V2
SYMBOL EIT_Digital\\schmitt-trigger-dif 176 160 R0
SYMATTR InstName U1
SYMATTR Value2 VH=0.1V
SYMBOL EIT_Digital\\probe_dig 288 128 R0
SYMATTR Value T=0
SYMATTR InstName U2
SYMBOL EIT_Digital\\probe_dig 288 160 R0
SYMATTR Value T=1
SYMATTR InstName U3
TEXT -8 80 Left 0 !.tran 0 2m 0 0.2u
TEXT 248 80 Left 0 !.param vpwr$_digital=3.3
TEXT 344 224 Left 0 ;TD= Verzögerungszeit
TEXT 344 256 Left 0 ;VH= Hysterese in Volt
