Version 4
SHEET 1 880 680
WIRE 224 96 128 96
WIRE 224 128 224 96
WIRE 160 144 48 144
WIRE 48 192 48 144
WIRE 160 224 160 192
WIRE 224 240 224 208
WIRE 256 240 224 240
WIRE 304 240 256 240
WIRE 464 240 384 240
WIRE 512 240 464 240
WIRE 560 240 512 240
WIRE 560 256 560 240
WIRE 224 288 224 240
WIRE 464 288 464 240
WIRE 560 352 560 336
FLAG 48 272 0
FLAG 160 224 0
FLAG 224 352 0
FLAG 464 352 0
FLAG 560 352 0
FLAG 256 240 s
FLAG 512 240 out
SYMBOL Source-Vmarker 128 96 R0
WINDOW 3 -52 0 Center 0
SYMATTR Value V=20V
SYMATTR InstName U1
SYMBOL Source-V 48 176 R0
WINDOW 3 -320 55 Left 0
WINDOW 123 0 0 Left 0
WINDOW 39 0 0 Left 0
SYMATTR Value PULSE(0 1 0 100n 100n 6u 33u)
SYMATTR InstName V1
SYMBOL schottky 240 352 R180
WINDOW 0 24 72 Left 0
WINDOW 3 24 0 Left 0
SYMATTR InstName D1
SYMATTR Value MBRS360
SYMATTR Description Diode
SYMATTR Type diode
SYMBOL ind 288 256 R270
WINDOW 0 32 56 VTop 0
WINDOW 3 5 56 VBottom 0
SYMATTR InstName L1
SYMATTR Value 100µ
SYMBOL cap 448 288 R0
SYMATTR InstName C1
SYMATTR Value 50µ
SYMBOL res 544 240 R0
SYMATTR InstName R1
SYMATTR Value {rl}
SYMBOL crtl-v-s 224 112 R0
SYMATTR InstName S1
TEXT 232 112 Left 0 !.model sw sw [ron=0.01 roff=1meg Vt=0.5 vh=-0.2
TEXT 248 408 Left 0 !.tran 0 1m
TEXT -216 144 Left 0 !.param rl=5
TEXT -304 80 Left 0 ;.step param rl list 2 5 7 10 20
