Version 4
SHEET 1 880 680
WIRE 368 48 336 48
WIRE 416 48 368 48
WIRE 416 64 416 48
WIRE 368 96 368 48
WIRE 368 96 -48 96
WIRE 176 128 112 128
WIRE 368 128 368 96
WIRE 368 128 336 128
WIRE 112 144 112 128
WIRE 176 176 128 176
WIRE 416 176 416 144
WIRE 416 176 336 176
WIRE 96 224 64 224
WIRE 176 224 96 224
WIRE 368 224 336 224
WIRE 416 224 416 176
WIRE 0 272 -48 272
WIRE 176 272 0 272
WIRE 352 272 336 272
WIRE 64 320 32 320
WIRE 128 320 128 176
WIRE 368 320 368 224
WIRE 368 320 128 320
WIRE 400 320 368 320
WIRE 416 320 416 304
WIRE 416 320 400 320
WIRE 32 352 32 320
WIRE 352 352 352 272
WIRE 448 352 352 352
WIRE 496 352 448 352
FLAG 112 144 0
FLAG 96 224 p3
FLAG 400 320 cap
FLAG 32 352 0
FLAG 0 272 rst
FLAG 448 352 cv
SYMBOL Source-Vmarker 336 48 R0
SYMATTR InstName U2
SYMBOL res 400 48 R0
SYMATTR InstName R1
SYMATTR Value 10k
SYMBOL res 400 208 R0
SYMATTR InstName R2
SYMATTR Value 1k
SYMBOL cap 128 304 R90
WINDOW 0 0 32 VBottom 0
WINDOW 3 32 32 VTop 0
SYMATTR InstName C1
SYMATTR Value 10n
SYMBOL timer-555 256 112 R0
SYMATTR InstName U1
TEXT 64 64 Left 0 !.tran 1m uic
