Version 4
SHEET 1 1264 2644
WIRE 96 16 -96 16
WIRE 240 16 96 16
WIRE 416 16 240 16
WIRE 464 48 -64 48
WIRE 464 64 464 48
WIRE 480 64 464 64
WIRE 384 80 0 80
WIRE 480 80 384 80
WIRE 608 80 544 80
WIRE 240 112 240 16
WIRE 0 144 0 80
WIRE 16 144 0 144
WIRE -64 160 -64 48
WIRE -64 160 -96 160
WIRE -48 160 -64 160
WIRE 16 160 -48 160
WIRE 160 160 80 160
WIRE 384 160 384 80
WIRE 384 160 320 160
WIRE 448 160 384 160
WIRE 560 160 448 160
WIRE 704 160 560 160
WIRE 864 160 816 160
WIRE 928 160 864 160
WIRE 160 208 128 208
WIRE -96 240 -256 240
WIRE 128 240 128 208
WIRE 128 240 -96 240
WIRE -16 272 -80 272
WIRE 240 272 240 256
WIRE 240 272 -16 272
WIRE 400 288 240 288
WIRE 416 288 416 16
WIRE 416 288 400 288
WIRE 128 304 128 240
WIRE 704 304 128 304
WIRE 864 304 816 304
WIRE 928 304 864 304
WIRE 608 336 608 80
WIRE 608 336 -32 336
WIRE 352 384 0 384
WIRE 432 384 352 384
WIRE 576 384 432 384
WIRE 704 384 576 384
WIRE 848 384 816 384
WIRE 928 384 848 384
WIRE 240 400 240 288
WIRE 464 416 464 64
WIRE 496 416 464 416
WIRE 0 432 0 384
WIRE 432 432 432 384
WIRE 496 432 432 432
WIRE 592 432 560 432
WIRE -32 448 -32 336
WIRE 0 448 -32 448
WIRE 160 448 64 448
WIRE 352 448 352 384
WIRE 352 448 320 448
WIRE 448 448 448 160
WIRE 496 448 448 448
WIRE 128 496 128 304
WIRE 160 496 128 496
WIRE -80 560 -80 272
WIRE 240 560 240 544
WIRE 240 560 -80 560
WIRE 400 592 400 288
WIRE 400 592 240 592
WIRE 592 624 592 432
WIRE 592 624 -32 624
WIRE 352 656 0 656
WIRE 624 656 352 656
WIRE 704 656 624 656
WIRE 864 656 816 656
WIRE 960 656 864 656
WIRE 240 688 240 592
WIRE 464 704 464 416
WIRE 496 704 464 704
WIRE 0 720 0 656
WIRE 432 720 432 432
WIRE 496 720 432 720
WIRE 592 720 560 720
WIRE -32 736 -32 624
WIRE 0 736 -32 736
WIRE 160 736 64 736
WIRE 352 736 352 656
WIRE 352 736 320 736
WIRE 416 736 352 736
WIRE 448 736 448 448
WIRE 496 736 448 736
WIRE 416 752 416 736
WIRE 496 752 416 752
WIRE 128 784 128 496
WIRE 160 784 128 784
WIRE -80 848 -80 560
WIRE 240 848 240 832
WIRE 240 848 -80 848
WIRE 400 880 400 592
WIRE 400 880 240 880
WIRE 592 896 592 720
WIRE 592 896 16 896
WIRE 352 928 0 928
WIRE 528 928 400 928
WIRE 592 928 528 928
WIRE 784 928 704 928
WIRE 864 928 784 928
WIRE 240 976 240 880
WIRE 464 992 464 704
WIRE 496 992 464 992
WIRE 16 1008 16 896
WIRE 432 1008 432 720
WIRE 496 1008 432 1008
WIRE 640 1008 560 1008
WIRE 704 1008 640 1008
WIRE 880 1008 816 1008
WIRE 912 1008 880 1008
WIRE 0 1024 0 928
WIRE 16 1024 0 1024
WIRE 160 1024 80 1024
WIRE 352 1024 352 928
WIRE 352 1024 320 1024
WIRE 400 1024 400 928
WIRE 400 1024 352 1024
WIRE 448 1024 448 736
WIRE 496 1024 448 1024
WIRE 416 1040 416 752
WIRE 496 1040 416 1040
WIRE 400 1056 400 1024
WIRE 496 1056 400 1056
WIRE 128 1072 128 784
WIRE 160 1072 128 1072
WIRE -80 1168 -80 848
WIRE 240 1168 240 1120
WIRE 240 1168 -80 1168
FLAG 864 160 d0_
FLAG 848 384 d1_
FLAG 864 656 d2_
FLAG 784 928 d3_
FLAG 96 16 pre
FLAG -16 272 clr
FLAG -96 240 clk
FLAG -48 160 ce
FLAG 560 160 d0
FLAG 576 384 d1
FLAG 624 656 d2
FLAG 528 928 d3
FLAG 640 1008 co
FLAG 880 1008 co_
FLAG 864 304 clk_
FLAG -256 320 0
SYMBOL dflop 240 112 R0
WINDOW 3 39 125 Left 0
SYMATTR Value TD={td} Vhigh={vpwr$_digital}
SYMATTR InstName A1
SYMBOL xor 48 400 R0
WINDOW 3 16 52 Left 0
SYMATTR Value Vhigh={vpwr$_digital}
SYMATTR InstName A3
SYMBOL xor 48 688 R0
WINDOW 3 16 52 Left 0
SYMATTR Value Vhigh={vpwr$_digital}
SYMATTR InstName A6
SYMBOL and 528 384 R0
WINDOW 3 16 52 Left 0
SYMATTR Value Vhigh={vpwr$_digital}
SYMATTR InstName A7
SYMBOL xor 64 976 R0
WINDOW 3 16 52 Left 0
SYMATTR Value Vhigh={vpwr$_digital}
SYMATTR InstName A10
SYMBOL and 528 672 R0
WINDOW 3 16 52 Left 0
SYMATTR Value Vhigh={vpwr$_digital}
SYMATTR InstName A11
SYMBOL and 528 960 R0
WINDOW 3 16 52 Left 0
SYMATTR Value Vhigh={vpwr$_digital}
SYMATTR InstName A15
SYMBOL xor 64 112 R0
WINDOW 3 16 52 Left 0
SYMATTR Value Vhigh={vpwr$_digital}
SYMATTR InstName A17
SYMBOL EIT_Digital\\level-high -96 160 R0
SYMATTR InstName U1
SYMBOL EIT_Digital\\probe_dig 704 144 R0
WINDOW 3 27 16 Left 0
SYMATTR Value T=0
SYMATTR InstName U2
SYMBOL EIT_Digital\\probe_dig 704 368 R0
SYMATTR Value T=1
SYMATTR InstName U3
SYMBOL EIT_Digital\\probe_dig 704 640 R0
SYMATTR Value T=2
SYMATTR InstName U4
SYMBOL EIT_Digital\\probe_dig 592 912 R0
WINDOW 3 41 16 Left 0
SYMATTR Value T=3
SYMATTR InstName U5
SYMBOL EIT_Digital\\level-low -96 16 R0
SYMATTR InstName U6
SYMBOL EIT_Digital\\level-low -80 272 R0
SYMATTR InstName U7
SYMBOL EIT_Digital\\probe_dig 704 992 R0
WINDOW 3 41 16 Left 0
SYMATTR Value T=5
SYMATTR InstName U8
SYMBOL EIT_Digital\\probe_dig 704 288 R0
WINDOW 3 27 16 Left 0
SYMATTR Value T=-2
SYMATTR InstName U9
SYMBOL Source-V -256 224 R0
WINDOW 3 -220 140 Left 0
WINDOW 123 0 0 Left 0
WINDOW 39 0 0 Left 0
SYMATTR Value PULSE(0 5 1u 1n 1n 1u 2u)
SYMATTR InstName V1
SYMBOL dflop 240 400 R0
WINDOW 3 39 125 Left 0
SYMATTR Value TD={td} Vhigh={vpwr$_digital}
SYMATTR InstName A2
SYMBOL dflop 240 688 R0
WINDOW 3 39 125 Left 0
SYMATTR Value TD={td} Vhigh={vpwr$_digital}
SYMATTR InstName A4
SYMBOL dflop 240 976 R0
WINDOW 3 39 125 Left 0
SYMATTR Value TD={td} Vhigh={vpwr$_digital}
SYMATTR InstName A5
SYMBOL and 512 32 R0
WINDOW 3 16 52 Left 0
SYMATTR Value Vhigh={vpwr$_digital}
SYMATTR InstName A8
TEXT -264 472 Left 0 !.tran 50u
TEXT -400 64 Left 0 !.param td=20n vpwr$_digital=5
