Version 4
SHEET 1 880 680
WIRE 160 128 80 128
WIRE 400 128 384 128
WIRE 432 128 400 128
WIRE 80 144 80 128
WIRE 160 192 160 128
WIRE 240 192 160 192
WIRE 416 192 384 192
WIRE 432 192 416 192
FLAG 80 224 0
FLAG 400 128 out
FLAG 416 192 outs
SYMBOL Linear_technology_libs\\SpecialFunctions\\modulate2 240 128 R0
WINDOW 3 -26 120 Left 0
SYMATTR Value space=0 mark=100
SYMATTR InstName A2
SYMBOL Source-V 80 128 R0
WINDOW 3 -100 136 Left 0
WINDOW 123 0 0 Left 0
WINDOW 39 0 0 Left 0
SYMATTR Value PULSE(0 10 0 1s)
SYMATTR InstName V1
TEXT 24 72 Left 0 !.tran 1
