Version 4
SHEET 1 880 680
WIRE 352 160 320 160
WIRE 368 160 352 160
WIRE 128 176 16 176
WIRE 16 192 16 176
WIRE 352 208 320 208
WIRE 368 208 352 208
FLAG 16 272 0
FLAG 352 160 sin
FLAG 352 208 cos
SYMBOL Source-V 16 176 R0
WINDOW 3 -44 123 Left 0
WINDOW 123 0 0 Left 0
WINDOW 39 0 0 Left 0
SYMATTR Value PULSE(0 5 0.1 0.8)
SYMATTR InstName V1
SYMBOL VCO_real 256 144 R0
WINDOW 40 -16 155 Left 0
SYMATTR SpiceLine2 amp=6V
SYMATTR Value Kf=50
SYMATTR Value2 V0=2
SYMATTR SpiceLine f0=100
SYMATTR InstName U1
TEXT 0 328 Left 0 !.tran 1
