Version 4
SHEET 1 896 692
WIRE 80 160 -64 160
WIRE 272 160 224 160
WIRE 304 160 272 160
WIRE 560 208 496 208
WIRE 592 208 560 208
WIRE 768 208 704 208
WIRE 800 208 768 208
WIRE 272 224 224 224
WIRE 304 224 272 224
WIRE 496 240 496 208
WIRE 704 240 704 208
WIRE -64 256 -64 160
WIRE 496 368 496 320
WIRE 704 368 704 320
WIRE -64 384 -64 336
WIRE 496 544 496 512
WIRE 656 544 656 512
WIRE 496 640 496 624
WIRE 656 640 656 624
FLAG 272 160 sin
FLAG 272 224 cos
FLAG -64 384 0
FLAG 496 368 0
FLAG 560 208 mulS
FLAG 496 640 0
FLAG 496 512 s1
FLAG 656 640 0
FLAG 656 512 c1
FLAG 704 368 0
FLAG 768 208 mulC
SYMBOL SpecialFunctions\\modulate2 80 160 R0
WINDOW 3 8 126 Left 2
SYMATTR InstName A1
SYMATTR Value space={F0} mark={F1}
SYMBOL voltage -64 240 R0
WINDOW 123 0 0 Left 2
WINDOW 39 0 0 Left 2
SYMATTR InstName V1
SYMATTR Value PULSE(0 1 0 100m)
SYMBOL bv 496 224 R0
WINDOW 3 -77 177 Left 2
SYMATTR InstName B1
SYMATTR Value V=V(sin)*V(s1)
SYMBOL voltage 496 528 R0
WINDOW 3 -78 146 Left 2
WINDOW 123 0 0 Left 2
WINDOW 39 0 0 Left 2
SYMATTR InstName V2
SYMATTR Value SINE(0 1 200k)
SYMBOL voltage 656 528 R0
WINDOW 3 -78 146 Left 2
WINDOW 123 0 0 Left 2
WINDOW 39 0 0 Left 2
SYMATTR InstName V3
SYMATTR Value SINE(0 1 200k 0 0 90)
SYMBOL bv 704 224 R0
WINDOW 3 -77 177 Left 2
SYMATTR InstName B2
SYMATTR Value V=V(sin)*V(c1)
TEXT -98 408 Left 2 !;tran 10
TEXT 80 -48 Left 2 !.param F0=5k\n.param F1=10e3
TEXT -248 -48 Left 2 !.tran 0 100m 500n \n.options plotwinsize=0
TEXT -224 96 Left 2 !;tran 50m
