Version 4
SHEET 1 900 680
WIRE -304 -656 -480 -656
WIRE 384 -656 192 -656
WIRE 448 -656 384 -656
WIRE 192 -624 192 -656
WIRE 96 -608 -128 -608
WIRE 128 -608 96 -608
WIRE -304 -592 -368 -592
WIRE 96 -544 16 -544
WIRE 128 -544 96 -544
WIRE 656 -544 560 -544
WIRE 688 -544 656 -544
WIRE 16 -528 16 -544
WIRE 192 -528 192 -544
WIRE -752 -512 -896 -512
WIRE -528 -512 -608 -512
WIRE -480 -512 -480 -656
WIRE -480 -512 -528 -512
WIRE 560 -512 560 -544
WIRE 448 -496 448 -656
WIRE 512 -496 448 -496
WIRE -896 -480 -896 -512
WIRE -528 -448 -608 -448
WIRE -480 -448 -528 -448
WIRE 512 -448 448 -448
WIRE 16 -432 16 -448
WIRE -896 -384 -896 -400
WIRE -480 -304 -480 -448
WIRE -304 -304 -480 -304
WIRE 384 -304 192 -304
WIRE 448 -304 448 -448
WIRE 448 -304 384 -304
WIRE 192 -272 192 -304
WIRE 96 -256 -128 -256
WIRE 128 -256 96 -256
WIRE -368 -240 -368 -592
WIRE -304 -240 -368 -240
WIRE -368 -208 -368 -240
WIRE 96 -192 16 -192
WIRE 128 -192 96 -192
WIRE 16 -176 16 -192
WIRE 192 -176 192 -192
WIRE 16 -80 16 -96
FLAG -896 -384 0
FLAG 192 -528 0
FLAG 384 -656 InDout
FLAG 192 -176 0
FLAG 384 -304 QaDout
FLAG -528 -512 In
FLAG 96 -608 InD
FLAG -368 -128 0
FLAG -528 -448 Qa
FLAG 96 -256 QaD
FLAG 16 -432 0
FLAG 96 -544 LoIn
FLAG 16 -80 0
FLAG 96 -192 LoQa
FLAG 560 -432 0
FLAG 656 -544 RF
SYMBOL SpecialFunctions\\modulate2 -752 -512 R0
WINDOW 3 -79 126 Left 2
SYMATTR Value space={F0} mark={F1}
SYMATTR InstName A1
SYMBOL voltage -896 -496 R0
WINDOW 123 0 0 Left 2
WINDOW 39 0 0 Left 2
WINDOW 3 -85 148 Left 2
SYMATTR Value PULSE(0 1 0 {tb})
SYMATTR InstName V1
SYMBOL bv 192 -640 R0
WINDOW 3 41 79 Left 2
SYMATTR Value V=V(InD)*V(LoIn)
SYMATTR InstName B1
SYMBOL bv 192 -288 R0
WINDOW 3 38 87 Left 2
SYMATTR Value V=V(QaD)*V(LoQa)
SYMATTR InstName B2
SYMBOL SpecialFunctions\\sample -224 -624 R0
SYMATTR InstName A2
SYMBOL voltage -368 -224 R0
WINDOW 3 -188 131 Left 2
WINDOW 123 0 0 Left 2
WINDOW 39 0 0 Left 2
SYMATTR Value PULSE(0 1 0 1n 1n {1/(2*fa1)} {1/fa1})
SYMATTR InstName V2
SYMBOL SpecialFunctions\\sample -224 -272 R0
SYMATTR InstName A3
SYMBOL voltage 16 -544 R0
WINDOW 0 39 46 Left 2
WINDOW 123 0 0 Left 2
WINDOW 39 0 0 Left 2
SYMATTR InstName V4
SYMATTR Value SINE(0 1 {flo} 0 0 0)
SYMBOL voltage 16 -192 R0
WINDOW 0 39 46 Left 2
WINDOW 123 0 0 Left 2
WINDOW 39 0 0 Left 2
SYMATTR InstName V5
SYMATTR Value SINE(0 1 {flo} 0 0 270)
SYMBOL bv 560 -528 R0
WINDOW 3 38 87 Left 2
SYMATTR Value V=V(InDout)-V(QaDout)
SYMATTR InstName B3
TEXT -896 -800 Left 2 !.param fc=37k\n.param B1= {1.8*fc}\n.param F0=1k\n.param F1=B1\n.param tb = 20m
TEXT -888 -624 Left 2 !.tran 0 {tb} 0
TEXT -656 -800 Left 2 !.param fa1=160k\n.param fa2=50k\n.param fa3=2meg\n \n.param flo=1.395meg
TEXT -880 -648 Left 2 !.options plotwinsize=0
