Version 4
SHEET 1 1648 1468
WIRE 496 128 480 128
WIRE 656 128 496 128
WIRE 80 160 -64 160
WIRE 272 160 224 160
WIRE 304 160 272 160
WIRE 912 176 832 176
WIRE 944 176 912 176
WIRE -64 192 -64 160
WIRE 656 192 592 192
WIRE 592 208 592 192
WIRE 272 224 224 224
WIRE 304 224 272 224
WIRE -64 288 -64 272
WIRE 64 400 0 400
WIRE 96 400 64 400
WIRE 272 400 208 400
WIRE 304 400 272 400
WIRE 496 400 480 400
WIRE 656 400 496 400
WIRE 0 432 0 400
WIRE 208 432 208 400
WIRE 912 448 832 448
WIRE 944 448 912 448
WIRE 656 464 592 464
WIRE 592 480 592 464
WIRE 0 560 0 512
WIRE 208 560 208 512
WIRE 496 672 480 672
WIRE 656 672 496 672
WIRE 912 720 832 720
WIRE 944 720 912 720
WIRE 0 736 0 704
WIRE 160 736 160 704
WIRE 656 736 592 736
WIRE 592 752 592 736
WIRE 0 832 0 816
WIRE 160 832 160 816
WIRE 208 1056 176 1056
WIRE 304 1056 208 1056
WIRE 464 1056 352 1056
WIRE 528 1056 464 1056
WIRE 352 1104 352 1056
WIRE 304 1120 304 1056
WIRE 304 1200 304 1168
WIRE 352 1200 352 1184
FLAG 272 224 cos
FLAG -64 288 0
FLAG 0 560 0
FLAG 64 400 mulS
FLAG 0 832 0
FLAG 0 704 s1
FLAG 160 832 0
FLAG 160 704 c1
FLAG 208 560 0
FLAG 272 400 mulC
FLAG 592 832 0
FLAG 272 160 sin
FLAG 496 400 sin
FLAG 496 672 s1
FLAG 496 128 mulS
FLAG 912 176 mulSa
FLAG 912 448 sina
FLAG 912 720 s1a
FLAG 592 560 0
FLAG 592 288 0
FLAG 304 1200 0
FLAG 352 1200 0
FLAG 464 1056 Ah
FLAG 208 1056 mulS
SYMBOL SpecialFunctions\\modulate2 80 160 R0
WINDOW 3 -1 129 Left 2
SYMATTR Value space={F0} mark={F1}
SYMATTR InstName A1
SYMBOL voltage -64 176 R0
WINDOW 123 0 0 Left 2
WINDOW 39 0 0 Left 2
WINDOW 3 -97 151 Left 2
SYMATTR Value PULSE(0 1 0 {tb})
SYMATTR InstName V1
SYMBOL bv 0 416 R0
WINDOW 3 -77 177 Left 2
SYMATTR Value V=V(sin)*V(s1)
SYMATTR InstName B1
SYMBOL voltage 0 720 R0
WINDOW 3 -78 146 Left 2
WINDOW 123 0 0 Left 2
WINDOW 39 0 0 Left 2
SYMATTR Value SINE(0 1 100k)
SYMATTR InstName V2
SYMBOL voltage 160 720 R0
WINDOW 3 -78 146 Left 2
WINDOW 123 0 0 Left 2
WINDOW 39 0 0 Left 2
SYMATTR Value SINE(0 1 200k 0 0 90)
SYMATTR InstName V3
SYMBOL bv 208 416 R0
WINDOW 3 -77 177 Left 2
SYMATTR Value V=V(sin)*V(c1)
SYMATTR InstName B2
SYMBOL SpecialFunctions\\sample 736 704 R0
SYMATTR InstName A2
SYMBOL voltage 592 736 R0
WINDOW 3 -78 126 Left 2
WINDOW 123 0 0 Left 2
WINDOW 39 0 0 Left 2
SYMATTR Value PULSE(0 1 0 1n 1n {1/(2*fa3)} {1/fa3})
SYMATTR InstName V4
SYMBOL SpecialFunctions\\sample 736 432 R0
SYMATTR InstName A3
SYMBOL SpecialFunctions\\sample 736 160 R0
SYMATTR InstName A4
SYMBOL voltage 592 464 R0
WINDOW 3 -78 129 Left 2
WINDOW 123 0 0 Left 2
WINDOW 39 0 0 Left 2
SYMATTR Value PULSE(0 1 0 1n 1n {1/(2*fa2)} {1/fa2})
SYMATTR InstName V5
SYMBOL voltage 592 192 R0
WINDOW 3 -78 129 Left 2
WINDOW 123 0 0 Left 2
WINDOW 39 0 0 Left 2
SYMATTR Value PULSE(0 1 0 1n 1n {1/(2*fa1)} {1/fa1})
SYMATTR InstName V6
SYMBOL e 352 1088 R0
SYMATTR InstName E1
SYMATTR Value laplace=(1-s/{f0h})/(1+s/{f0h})
TEXT 80 -48 Left 2 !.param F0=7.5k\n.param F1=12.5k\n.param tb = 5m
TEXT -224 -32 Left 2 !.tran 0 {tb} 0
TEXT 488 -72 Left 2 !.param fa1=2meg\n.param fa2=50k\n.param fa3=2meg
TEXT -240 8 Left 2 !.options plotwinsize=0
TEXT 192 1000 Left 2 !.param f0h = 100k
